
Note: No compatibility mode selected!


Circuit: * vfd-filament regulator netlist for iv-6 (tube=iv6)

Warning: Model issue on line 47 :
  .model xm_o_pmos:pmod1 pmos (level=3 vto=-2.1 tox=6e-8 nsub=5e+16 kp=9 n ...
unrecognized parameter (n) - ignored

Warning: Model issue on line 47 :
  .model xm_o_nmos:nmod1 nmos (level=3 vto=2 tox=6.4e-8 nsub=5e+16 kp=33 n ...
unrecognized parameter (n) - ignored

Warning: Model issue on line 47 :
  .model xm_a_pmos:pmod1 pmos (level=3 vto=-2.1 tox=6e-8 nsub=5e+16 kp=9 n ...
unrecognized parameter (n) - ignored

Warning: Model issue on line 47 :
  .model xm_a_nmos:nmod1 nmos (level=3 vto=2 tox=6.4e-8 nsub=5e+16 kp=33 n ...
unrecognized parameter (n) - ignored

Doing analysis at TEMP = 27.000000 and TNOM = 27.000000

Using SPARSE 1.3 as Direct Linear Solver
Operating point simulation skipped by 'uic',
  now using transient initial conditions.
 Reference value :  1.14271e-05 Reference value :  2.50427e-05 Reference value :  3.77263e-05 Reference value :  5.02786e-05 Reference value :  6.30303e-05 Reference value :  7.55187e-05 Reference value :  8.80512e-05 Reference value :  1.00697e-04 Reference value :  1.13608e-04 Reference value :  1.26380e-04 Reference value :  1.38579e-04 Reference value :  1.50719e-04 Reference value :  1.62865e-04 Reference value :  1.75538e-04 Reference value :  1.88163e-04 Reference value :  2.01234e-04 Reference value :  2.14009e-04 Reference value :  2.26568e-04 Reference value :  2.39362e-04 Reference value :  2.51659e-04 Reference value :  2.64225e-04 Reference value :  2.76725e-04 Reference value :  2.89102e-04 Reference value :  3.01410e-04 Reference value :  3.14085e-04 Reference value :  3.26247e-04 Reference value :  3.38966e-04 Reference value :  3.51476e-04 Reference value :  3.64251e-04 Reference value :  3.76633e-04 Reference value :  3.88558e-04 Reference value :  4.00793e-04 Reference value :  4.12694e-04 Reference value :  4.24799e-04 Reference value :  4.37276e-04 Reference value :  4.49645e-04 Reference value :  4.62193e-04 Reference value :  4.75154e-04 Reference value :  4.87804e-04 Reference value :  5.00377e-04 Reference value :  5.12827e-04 Reference value :  5.25403e-04 Reference value :  5.37926e-04 Reference value :  5.50700e-04 Reference value :  5.63551e-04 Reference value :  5.76335e-04 Reference value :  5.89114e-04 Reference value :  6.01924e-04 Reference value :  6.14737e-04 Reference value :  6.27808e-04 Reference value :  6.40580e-04 Reference value :  6.53433e-04 Reference value :  6.66560e-04 Reference value :  6.79447e-04 Reference value :  6.92371e-04 Reference value :  7.05351e-04 Reference value :  7.18452e-04 Reference value :  7.31611e-04 Reference value :  7.44532e-04 Reference value :  7.57845e-04 Reference value :  7.70383e-04 Reference value :  7.83292e-04 Reference value :  7.96309e-04 Reference value :  8.09537e-04 Reference value :  8.22946e-04 Reference value :  8.35911e-04 Reference value :  8.49376e-04 Reference value :  8.62776e-04 Reference value :  8.76087e-04 Reference value :  8.89212e-04 Reference value :  9.02492e-04 Reference value :  9.15784e-04 Reference value :  9.29049e-04 Reference value :  9.42491e-04 Reference value :  9.55649e-04 Reference value :  9.68815e-04 Reference value :  9.81991e-04 Reference value :  9.94729e-04 Reference value :  1.00732e-03 Reference value :  1.02047e-03 Reference value :  1.03339e-03 Reference value :  1.04580e-03 Reference value :  1.05871e-03 Reference value :  1.07158e-03 Reference value :  1.08424e-03 Reference value :  1.09718e-03 Reference value :  1.11003e-03 Reference value :  1.12290e-03 Reference value :  1.13576e-03 Reference value :  1.14823e-03 Reference value :  1.16087e-03 Reference value :  1.17348e-03 Reference value :  1.18595e-03 Reference value :  1.19831e-03 Reference value :  1.21067e-03 Reference value :  1.22341e-03 Reference value :  1.23592e-03 Reference value :  1.24839e-03 Reference value :  1.26074e-03 Reference value :  1.27347e-03 Reference value :  1.28620e-03 Reference value :  1.29892e-03 Reference value :  1.31163e-03 Reference value :  1.32417e-03 Reference value :  1.33671e-03 Reference value :  1.34909e-03 Reference value :  1.36153e-03 Reference value :  1.37403e-03 Reference value :  1.38663e-03 Reference value :  1.39861e-03 Reference value :  1.41067e-03 Reference value :  1.42282e-03 Reference value :  1.43519e-03 Reference value :  1.44738e-03 Reference value :  1.45984e-03 Reference value :  1.47251e-03 Reference value :  1.48508e-03 Reference value :  1.49817e-03 Reference value :  1.51068e-03 Reference value :  1.52341e-03 Reference value :  1.53624e-03 Reference value :  1.54908e-03 Reference value :  1.56187e-03 Reference value :  1.57504e-03 Reference value :  1.58781e-03 Reference value :  1.60095e-03 Reference value :  1.61370e-03 Reference value :  1.62691e-03 Reference value :  1.64002e-03 Reference value :  1.65292e-03 Reference value :  1.66570e-03 Reference value :  1.67894e-03 Reference value :  1.69232e-03 Reference value :  1.70573e-03 Reference value :  1.71882e-03 Reference value :  1.73218e-03 Reference value :  1.74557e-03 Reference value :  1.75909e-03 Reference value :  1.77233e-03 Reference value :  1.78493e-03 Reference value :  1.79762e-03 Reference value :  1.81095e-03 Reference value :  1.82430e-03 Reference value :  1.83804e-03 Reference value :  1.85194e-03 Reference value :  1.86586e-03 Reference value :  1.87951e-03 Reference value :  1.89298e-03 Reference value :  1.90762e-03 Reference value :  1.92200e-03 Reference value :  1.93676e-03 Reference value :  1.95142e-03 Reference value :  1.96558e-03 Reference value :  1.97944e-03 Reference value :  1.99365e-03 Reference value :  2.00752e-03 Reference value :  2.02141e-03 Reference value :  2.03482e-03 Reference value :  2.04825e-03 Reference value :  2.06121e-03 Reference value :  2.07410e-03 Reference value :  2.08741e-03 Reference value :  2.10062e-03 Reference value :  2.11347e-03 Reference value :  2.12628e-03 Reference value :  2.13918e-03 Reference value :  2.15190e-03 Reference value :  2.16455e-03 Reference value :  2.17758e-03 Reference value :  2.19008e-03 Reference value :  2.20255e-03 Reference value :  2.21467e-03 Reference value :  2.22714e-03 Reference value :  2.23931e-03 Reference value :  2.25169e-03 Reference value :  2.26416e-03 Reference value :  2.27656e-03 Reference value :  2.28886e-03 Reference value :  2.30107e-03 Reference value :  2.31344e-03 Reference value :  2.32619e-03 Reference value :  2.33871e-03 Reference value :  2.35125e-03 Reference value :  2.36374e-03 Reference value :  2.37609e-03 Reference value :  2.38869e-03 Reference value :  2.40127e-03 Reference value :  2.41336e-03 Reference value :  2.42517e-03 Reference value :  2.43733e-03 Reference value :  2.44972e-03 Reference value :  2.46218e-03 Reference value :  2.47471e-03 Reference value :  2.48736e-03 Reference value :  2.49992e-03 Reference value :  2.51239e-03 Reference value :  2.52477e-03 Reference value :  2.53731e-03 Reference value :  2.55039e-03 Reference value :  2.56292e-03 Reference value :  2.57561e-03 Reference value :  2.58865e-03 Reference value :  2.60160e-03 Reference value :  2.61477e-03 Reference value :  2.62742e-03 Reference value :  2.64021e-03 Reference value :  2.65328e-03 Reference value :  2.66642e-03 Reference value :  2.67958e-03 Reference value :  2.69277e-03 Reference value :  2.70593e-03 Reference value :  2.71903e-03 Reference value :  2.73245e-03 Reference value :  2.74534e-03 Reference value :  2.75889e-03 Reference value :  2.77273e-03 Reference value :  2.78652e-03 Reference value :  2.80081e-03 Reference value :  2.81536e-03 Reference value :  2.82987e-03 Reference value :  2.84410e-03 Reference value :  2.85826e-03 Reference value :  2.87246e-03 Reference value :  2.88624e-03 Reference value :  2.89986e-03 Reference value :  2.91366e-03 Reference value :  2.92752e-03 Reference value :  2.94132e-03 Reference value :  2.95480e-03 Reference value :  2.96834e-03 Reference value :  2.98189e-03 Reference value :  2.99555e-03 Reference value :  3.00894e-03 Reference value :  3.02246e-03 Reference value :  3.03587e-03 Reference value :  3.04949e-03 Reference value :  3.06364e-03 Reference value :  3.07740e-03 Reference value :  3.09106e-03 Reference value :  3.10474e-03 Reference value :  3.11987e-03 Reference value :  3.13459e-03 Reference value :  3.14817e-03 Reference value :  3.16144e-03 Reference value :  3.17467e-03 Reference value :  3.18744e-03 Reference value :  3.20023e-03 Reference value :  3.21330e-03 Reference value :  3.22621e-03 Reference value :  3.23905e-03 Reference value :  3.25132e-03 Reference value :  3.26429e-03 Reference value :  3.27621e-03 Reference value :  3.28880e-03 Reference value :  3.30124e-03 Reference value :  3.31363e-03 Reference value :  3.32602e-03 Reference value :  3.33854e-03 Reference value :  3.35101e-03 Reference value :  3.36351e-03 Reference value :  3.37591e-03 Reference value :  3.38833e-03 Reference value :  3.40083e-03 Reference value :  3.41321e-03 Reference value :  3.42533e-03 Reference value :  3.43722e-03 Reference value :  3.44971e-03 Reference value :  3.46211e-03 Reference value :  3.47505e-03 Reference value :  3.48765e-03 Reference value :  3.50039e-03 Reference value :  3.51293e-03 Reference value :  3.52577e-03 Reference value :  3.53852e-03 Reference value :  3.55124e-03 Reference value :  3.56414e-03 Reference value :  3.57697e-03 Reference value :  3.58969e-03 Reference value :  3.60259e-03 Reference value :  3.61568e-03 Reference value :  3.62909e-03 Reference value :  3.64220e-03 Reference value :  3.65533e-03 Reference value :  3.66854e-03 Reference value :  3.68182e-03 Reference value :  3.69467e-03 Reference value :  3.70783e-03 Reference value :  3.72145e-03 Reference value :  3.73518e-03 Reference value :  3.74955e-03 Reference value :  3.76430e-03 Reference value :  3.77857e-03 Reference value :  3.79255e-03 Reference value :  3.80630e-03 Reference value :  3.81956e-03 Reference value :  3.83302e-03 Reference value :  3.84715e-03 Reference value :  3.86075e-03 Reference value :  3.87424e-03 Reference value :  3.88741e-03 Reference value :  3.90085e-03 Reference value :  3.91469e-03 Reference value :  3.92833e-03 Reference value :  3.94183e-03 Reference value :  3.95449e-03 Reference value :  3.96701e-03 Reference value :  3.97932e-03 Reference value :  3.99193e-03 Reference value :  4.00440e-03 Reference value :  4.01683e-03 Reference value :  4.02924e-03 Reference value :  4.04177e-03 Reference value :  4.05455e-03 Reference value :  4.06754e-03 Reference value :  4.08029e-03 Reference value :  4.09331e-03 Reference value :  4.10674e-03 Reference value :  4.12015e-03 Reference value :  4.13335e-03 Reference value :  4.14747e-03 Reference value :  4.16081e-03 Reference value :  4.17583e-03 Reference value :  4.18925e-03 Reference value :  4.20239e-03 Reference value :  4.21554e-03 Reference value :  4.22843e-03 Reference value :  4.24158e-03 Reference value :  4.25481e-03 Reference value :  4.26746e-03 Reference value :  4.28009e-03 Reference value :  4.29257e-03 Reference value :  4.30513e-03 Reference value :  4.31752e-03 Reference value :  4.33000e-03 Reference value :  4.34246e-03 Reference value :  4.35487e-03 Reference value :  4.36739e-03 Reference value :  4.37986e-03 Reference value :  4.39210e-03 Reference value :  4.40446e-03 Reference value :  4.41673e-03 Reference value :  4.42852e-03 Reference value :  4.44035e-03 Reference value :  4.45257e-03 Reference value :  4.46479e-03 Reference value :  4.47714e-03 Reference value :  4.48947e-03 Reference value :  4.50164e-03 Reference value :  4.51372e-03 Reference value :  4.52605e-03 Reference value :  4.53838e-03 Reference value :  4.55085e-03 Reference value :  4.56354e-03 Reference value :  4.57607e-03 Reference value :  4.58858e-03 Reference value :  4.60134e-03 Reference value :  4.61415e-03 Reference value :  4.62702e-03 Reference value :  4.64025e-03 Reference value :  4.65310e-03 Reference value :  4.66620e-03 Reference value :  4.67898e-03 Reference value :  4.69216e-03 Reference value :  4.70578e-03 Reference value :  4.71958e-03 Reference value :  4.73390e-03 Reference value :  4.74771e-03 Reference value :  4.76161e-03 Reference value :  4.77542e-03 Reference value :  4.78926e-03 Reference value :  4.80307e-03 Reference value :  4.81603e-03 Reference value :  4.82865e-03 Reference value :  4.84134e-03 Reference value :  4.85411e-03 Reference value :  4.86710e-03 Reference value :  4.88012e-03 Reference value :  4.89299e-03 Reference value :  4.90565e-03 Reference value :  4.91842e-03 Reference value :  4.93102e-03 Reference value :  4.94341e-03 Reference value :  4.95586e-03 Reference value :  4.96796e-03 Reference value :  4.98027e-03 Reference value :  4.99281e-03 Reference value :  5.00504e-03 Reference value :  5.01760e-03 Reference value :  5.03023e-03 Reference value :  5.04269e-03 Reference value :  5.05516e-03 Reference value :  5.06758e-03 Reference value :  5.07989e-03 Reference value :  5.09233e-03 Reference value :  5.10480e-03 Reference value :  5.11738e-03 Reference value :  5.12986e-03 Reference value :  5.14247e-03 Reference value :  5.15560e-03 Reference value :  5.16873e-03 Reference value :  5.18290e-03 Reference value :  5.19745e-03 Reference value :  5.21174e-03 Reference value :  5.22493e-03 Reference value :  5.23791e-03 Reference value :  5.25108e-03 Reference value :  5.26384e-03 Reference value :  5.27612e-03 Reference value :  5.28862e-03 Reference value :  5.30162e-03 Reference value :  5.31433e-03 Reference value :  5.32675e-03 Reference value :  5.33916e-03 Reference value :  5.35177e-03 Reference value :  5.36424e-03 Reference value :  5.37667e-03 Reference value :  5.38913e-03 Reference value :  5.40128e-03 Reference value :  5.41355e-03 Reference value :  5.42539e-03 Reference value :  5.43683e-03 Reference value :  5.44869e-03 Reference value :  5.46074e-03 Reference value :  5.47286e-03 Reference value :  5.48495e-03 Reference value :  5.49716e-03 Reference value :  5.50926e-03 Reference value :  5.52123e-03 Reference value :  5.53358e-03 Reference value :  5.54580e-03 Reference value :  5.55789e-03 Reference value :  5.57008e-03 Reference value :  5.58253e-03 Reference value :  5.59532e-03 Reference value :  5.60807e-03 Reference value :  5.62071e-03 Reference value :  5.63352e-03 Reference value :  5.64699e-03 Reference value :  5.66024e-03 Reference value :  5.67286e-03 Reference value :  5.68636e-03 Reference value :  5.70014e-03 Reference value :  5.71466e-03 Reference value :  5.72886e-03 Reference value :  5.74222e-03 Reference value :  5.75617e-03 Reference value :  5.76976e-03 Reference value :  5.78264e-03 Reference value :  5.79571e-03 Reference value :  5.80847e-03 Reference value :  5.82100e-03 Reference value :  5.83353e-03 Reference value :  5.84587e-03 Reference value :  5.85777e-03 Reference value :  5.86944e-03 Reference value :  5.88121e-03 Reference value :  5.89330e-03 Reference value :  5.90546e-03 Reference value :  5.91739e-03 Reference value :  5.92967e-03 Reference value :  5.94138e-03 Reference value :  5.95321e-03 Reference value :  5.96493e-03 Reference value :  5.97664e-03 Reference value :  5.98839e-03 Reference value :  6.00020e-03 Reference value :  6.01198e-03 Reference value :  6.02373e-03 Reference value :  6.03573e-03 Reference value :  6.04807e-03 Reference value :  6.06036e-03 Reference value :  6.07252e-03 Reference value :  6.08461e-03 Reference value :  6.09648e-03 Reference value :  6.10865e-03 Reference value :  6.12147e-03 Reference value :  6.13386e-03 Reference value :  6.14618e-03 Reference value :  6.15845e-03 Reference value :  6.17119e-03 Reference value :  6.18463e-03 Reference value :  6.19828e-03 Reference value :  6.21278e-03 Reference value :  6.22681e-03 Reference value :  6.24027e-03 Reference value :  6.25359e-03 Reference value :  6.26636e-03 Reference value :  6.27894e-03 Reference value :  6.29147e-03 Reference value :  6.30411e-03 Reference value :  6.31660e-03 Reference value :  6.32874e-03 Reference value :  6.34048e-03 Reference value :  6.35285e-03 Reference value :  6.36510e-03 Reference value :  6.37756e-03 Reference value :  6.38953e-03 Reference value :  6.40167e-03 Reference value :  6.41345e-03 Reference value :  6.42553e-03 Reference value :  6.43701e-03 Reference value :  6.44872e-03 Reference value :  6.46041e-03 Reference value :  6.47205e-03 Reference value :  6.48352e-03 Reference value :  6.49508e-03 Reference value :  6.50672e-03 Reference value :  6.51851e-03 Reference value :  6.53026e-03 Reference value :  6.54259e-03 Reference value :  6.55464e-03 Reference value :  6.56658e-03 Reference value :  6.57881e-03 Reference value :  6.59087e-03 Reference value :  6.60297e-03 Reference value :  6.61541e-03 Reference value :  6.62798e-03 Reference value :  6.64093e-03 Reference value :  6.65397e-03 Reference value :  6.66710e-03 Reference value :  6.68009e-03 Reference value :  6.69365e-03 Reference value :  6.70823e-03 Reference value :  6.72215e-03 Reference value :  6.73639e-03 Reference value :  6.74969e-03 Reference value :  6.76268e-03 Reference value :  6.77537e-03 Reference value :  6.78760e-03 Reference value :  6.79983e-03 Reference value :  6.81195e-03 Reference value :  6.82437e-03 Reference value :  6.83685e-03 Reference value :  6.84939e-03 Reference value :  6.86170e-03 Reference value :  6.87390e-03 Reference value :  6.88503e-03 Reference value :  6.89704e-03 Reference value :  6.90908e-03 Reference value :  6.92073e-03 Reference value :  6.93263e-03 Reference value :  6.94455e-03 Reference value :  6.95600e-03 Reference value :  6.96740e-03 Reference value :  6.97879e-03 Reference value :  6.99049e-03 Reference value :  7.00224e-03 Reference value :  7.01367e-03 Reference value :  7.02538e-03 Reference value :  7.03716e-03 Reference value :  7.04891e-03 Reference value :  7.06073e-03 Reference value :  7.07291e-03 Reference value :  7.08496e-03 Reference value :  7.09689e-03 Reference value :  7.10936e-03 Reference value :  7.12185e-03 Reference value :  7.13429e-03 Reference value :  7.14688e-03 Reference value :  7.15946e-03 Reference value :  7.17178e-03 Reference value :  7.18449e-03 Reference value :  7.19759e-03 Reference value :  7.21153e-03 Reference value :  7.22624e-03 Reference value :  7.23968e-03 Reference value :  7.25330e-03 Reference value :  7.26600e-03 Reference value :  7.27858e-03 Reference value :  7.29113e-03 Reference value :  7.30372e-03 Reference value :  7.31623e-03 Reference value :  7.32838e-03 Reference value :  7.34013e-03 Reference value :  7.35238e-03 Reference value :  7.36436e-03 Reference value :  7.37628e-03 Reference value :  7.38775e-03 Reference value :  7.39939e-03 Reference value :  7.41085e-03 Reference value :  7.42255e-03 Reference value :  7.43410e-03 Reference value :  7.44479e-03 Reference value :  7.45595e-03 Reference value :  7.46700e-03 Reference value :  7.47861e-03 Reference value :  7.49010e-03 Reference value :  7.50141e-03 Reference value :  7.51297e-03 Reference value :  7.52440e-03 Reference value :  7.53574e-03 Reference value :  7.54729e-03 Reference value :  7.55885e-03 Reference value :  7.57096e-03 Reference value :  7.58261e-03 Reference value :  7.59424e-03 Reference value :  7.60646e-03 Reference value :  7.61839e-03 Reference value :  7.63062e-03 Reference value :  7.64320e-03 Reference value :  7.65581e-03 Reference value :  7.66868e-03 Reference value :  7.68156e-03 Reference value :  7.69550e-03 Reference value :  7.70932e-03 Reference value :  7.72333e-03 Reference value :  7.73634e-03 Reference value :  7.74923e-03 Reference value :  7.76182e-03 Reference value :  7.77420e-03 Reference value :  7.78640e-03 Reference value :  7.79864e-03 Reference value :  7.81083e-03 Reference value :  7.82289e-03 Reference value :  7.83509e-03 Reference value :  7.84697e-03 Reference value :  7.85891e-03 Reference value :  7.87053e-03 Reference value :  7.88170e-03 Reference value :  7.89276e-03 Reference value :  7.90379e-03 Reference value :  7.91543e-03 Reference value :  7.92717e-03 Reference value :  7.93874e-03 Reference value :  7.95008e-03 Reference value :  7.96138e-03 Reference value :  7.97300e-03 Reference value :  7.98423e-03 Reference value :  7.99529e-03 Reference value :  8.00656e-03 Reference value :  8.01763e-03 Reference value :  8.02897e-03 Reference value :  8.03993e-03 Reference value :  8.05100e-03 Reference value :  8.06251e-03 Reference value :  8.07423e-03 Reference value :  8.08593e-03 Reference value :  8.09791e-03 Reference value :  8.11007e-03 Reference value :  8.12187e-03 Reference value :  8.13416e-03 Reference value :  8.14670e-03 Reference value :  8.15915e-03 Reference value :  8.17161e-03 Reference value :  8.18446e-03 Reference value :  8.19724e-03 Reference value :  8.21035e-03 Reference value :  8.22478e-03 Reference value :  8.23926e-03 Reference value :  8.25262e-03 Reference value :  8.26556e-03 Reference value :  8.27841e-03 Reference value :  8.29097e-03 Reference value :  8.30340e-03 Reference value :  8.31539e-03 Reference value :  8.32742e-03 Reference value :  8.33909e-03 Reference value :  8.35057e-03 Reference value :  8.36179e-03 Reference value :  8.37353e-03 Reference value :  8.38488e-03 Reference value :  8.39635e-03 Reference value :  8.40771e-03 Reference value :  8.41935e-03 Reference value :  8.43104e-03 Reference value :  8.44211e-03 Reference value :  8.45305e-03 Reference value :  8.46428e-03 Reference value :  8.47590e-03 Reference value :  8.48727e-03 Reference value :  8.49835e-03 Reference value :  8.50947e-03 Reference value :  8.52078e-03 Reference value :  8.53216e-03 Reference value :  8.54362e-03 Reference value :  8.55497e-03 Reference value :  8.56653e-03 Reference value :  8.57798e-03 Reference value :  8.58988e-03 Reference value :  8.60205e-03 Reference value :  8.61358e-03 Reference value :  8.62533e-03 Reference value :  8.63685e-03 Reference value :  8.64908e-03 Reference value :  8.66152e-03 Reference value :  8.67454e-03 Reference value :  8.68759e-03 Reference value :  8.70190e-03 Reference value :  8.71538e-03 Reference value :  8.72854e-03 Reference value :  8.74082e-03 Reference value :  8.75287e-03 Reference value :  8.76475e-03 Reference value :  8.77654e-03 Reference value :  8.78825e-03 Reference value :  8.79987e-03 Reference value :  8.81145e-03 Reference value :  8.82312e-03 Reference value :  8.83526e-03 Reference value :  8.84668e-03 Reference value :  8.85805e-03 Reference value :  8.86929e-03 Reference value :  8.88020e-03 Reference value :  8.89106e-03 Reference value :  8.90135e-03 Reference value :  8.91158e-03 Reference value :  8.92205e-03 Reference value :  8.93286e-03 Reference value :  8.94329e-03 Reference value :  8.95404e-03 Reference value :  8.96443e-03 Reference value :  8.97461e-03 Reference value :  8.98469e-03 Reference value :  8.99486e-03 Reference value :  9.00517e-03 Reference value :  9.01539e-03 Reference value :  9.02571e-03 Reference value :  9.03588e-03 Reference value :  9.04612e-03 Reference value :  9.05644e-03 Reference value :  9.06688e-03 Reference value :  9.07752e-03 Reference value :  9.08834e-03 Reference value :  9.09910e-03 Reference value :  9.11050e-03 Reference value :  9.12251e-03 Reference value :  9.13446e-03 Reference value :  9.14617e-03 Reference value :  9.15877e-03 Reference value :  9.17112e-03 Reference value :  9.18365e-03 Reference value :  9.19598e-03 Reference value :  9.20849e-03 Reference value :  9.22185e-03 Reference value :  9.23613e-03 Reference value :  9.24976e-03 Reference value :  9.26319e-03 Reference value :  9.27594e-03 Reference value :  9.28778e-03 Reference value :  9.29947e-03 Reference value :  9.31084e-03 Reference value :  9.32249e-03 Reference value :  9.33406e-03 Reference value :  9.34573e-03 Reference value :  9.35703e-03 Reference value :  9.36836e-03 Reference value :  9.37880e-03 Reference value :  9.38877e-03 Reference value :  9.39932e-03 Reference value :  9.40969e-03 Reference value :  9.42012e-03 Reference value :  9.43096e-03 Reference value :  9.44159e-03 Reference value :  9.45206e-03 Reference value :  9.46243e-03 Reference value :  9.47298e-03 Reference value :  9.48351e-03 Reference value :  9.49385e-03 Reference value :  9.50410e-03 Reference value :  9.51431e-03 Reference value :  9.52448e-03 Reference value :  9.53470e-03 Reference value :  9.54491e-03 Reference value :  9.55526e-03 Reference value :  9.56590e-03 Reference value :  9.57676e-03 Reference value :  9.58766e-03 Reference value :  9.59920e-03 Reference value :  9.61056e-03 Reference value :  9.62281e-03 Reference value :  9.63534e-03 Reference value :  9.64798e-03 Reference value :  9.66067e-03 Reference value :  9.67377e-03 Reference value :  9.68727e-03 Reference value :  9.70187e-03 Reference value :  9.71584e-03 Reference value :  9.72894e-03 Reference value :  9.74151e-03 Reference value :  9.75387e-03 Reference value :  9.76572e-03 Reference value :  9.77762e-03 Reference value :  9.78943e-03 Reference value :  9.80157e-03 Reference value :  9.81271e-03 Reference value :  9.82377e-03 Reference value :  9.83407e-03 Reference value :  9.84471e-03 Reference value :  9.85507e-03 Reference value :  9.86511e-03 Reference value :  9.87438e-03 Reference value :  9.88409e-03 Reference value :  9.89373e-03 Reference value :  9.90335e-03 Reference value :  9.91311e-03 Reference value :  9.92222e-03 Reference value :  9.93193e-03 Reference value :  9.94159e-03 Reference value :  9.95108e-03 Reference value :  9.96052e-03 Reference value :  9.96990e-03 Reference value :  9.97957e-03 Reference value :  9.98893e-03 Reference value :  9.99886e-03 Reference value :  1.00087e-02 Reference value :  1.00185e-02 Reference value :  1.00287e-02 Reference value :  1.00385e-02 Reference value :  1.00488e-02 Reference value :  1.00586e-02 Reference value :  1.00684e-02 Reference value :  1.00781e-02 Reference value :  1.00878e-02 Reference value :  1.00978e-02 Reference value :  1.01074e-02 Reference value :  1.01179e-02 Reference value :  1.01277e-02 Reference value :  1.01386e-02 Reference value :  1.01497e-02 Reference value :  1.01606e-02 Reference value :  1.01722e-02 Reference value :  1.01847e-02 Reference value :  1.01978e-02 Reference value :  1.02111e-02 Reference value :  1.02249e-02 Reference value :  1.02400e-02 Reference value :  1.02537e-02 Reference value :  1.02669e-02 Reference value :  1.02795e-02 Reference value :  1.02916e-02 Reference value :  1.03033e-02 Reference value :  1.03142e-02 Reference value :  1.03252e-02 Reference value :  1.03365e-02 Reference value :  1.03472e-02 Reference value :  1.03578e-02 Reference value :  1.03675e-02 Reference value :  1.03774e-02 Reference value :  1.03872e-02 Reference value :  1.03969e-02 Reference value :  1.04065e-02 Reference value :  1.04160e-02 Reference value :  1.04254e-02 Reference value :  1.04351e-02 Reference value :  1.04445e-02 Reference value :  1.04538e-02 Reference value :  1.04631e-02 Reference value :  1.04725e-02 Reference value :  1.04818e-02 Reference value :  1.04910e-02 Reference value :  1.05001e-02 Reference value :  1.05094e-02 Reference value :  1.05189e-02 Reference value :  1.05289e-02 Reference value :  1.05390e-02 Reference value :  1.05489e-02 Reference value :  1.05595e-02 Reference value :  1.05696e-02 Reference value :  1.05798e-02 Reference value :  1.05898e-02 Reference value :  1.05999e-02 Reference value :  1.06099e-02 Reference value :  1.06206e-02 Reference value :  1.06318e-02 Reference value :  1.06445e-02 Reference value :  1.06575e-02 Reference value :  1.06714e-02 Reference value :  1.06851e-02 Reference value :  1.07003e-02 Reference value :  1.07156e-02 Reference value :  1.07293e-02 Reference value :  1.07427e-02 Reference value :  1.07560e-02 Reference value :  1.07682e-02 Reference value :  1.07807e-02 Reference value :  1.07921e-02 Reference value :  1.08035e-02 Reference value :  1.08142e-02 Reference value :  1.08244e-02 Reference value :  1.08347e-02 Reference value :  1.08451e-02 Reference value :  1.08548e-02 Reference value :  1.08654e-02 Reference value :  1.08763e-02 Reference value :  1.08872e-02 Reference value :  1.08975e-02 Reference value :  1.09073e-02 Reference value :  1.09165e-02 Reference value :  1.09255e-02 Reference value :  1.09342e-02 Reference value :  1.09434e-02 Reference value :  1.09527e-02 Reference value :  1.09626e-02 Reference value :  1.09726e-02 Reference value :  1.09826e-02 Reference value :  1.09921e-02 Reference value :  1.10014e-02 Reference value :  1.10107e-02 Reference value :  1.10206e-02 Reference value :  1.10309e-02 Reference value :  1.10409e-02 Reference value :  1.10513e-02 Reference value :  1.10621e-02 Reference value :  1.10734e-02 Reference value :  1.10848e-02 Reference value :  1.10958e-02 Reference value :  1.11065e-02 Reference value :  1.11178e-02 Reference value :  1.11295e-02 Reference value :  1.11416e-02 Reference value :  1.11538e-02 Reference value :  1.11660e-02 Reference value :  1.11773e-02 Reference value :  1.11891e-02 Reference value :  1.12002e-02 Reference value :  1.12137e-02 Reference value :  1.12286e-02 Reference value :  1.12447e-02 Reference value :  1.12589e-02 Reference value :  1.12720e-02 Reference value :  1.12838e-02 Reference value :  1.12948e-02 Reference value :  1.13054e-02 Reference value :  1.13164e-02 Reference value :  1.13271e-02 Reference value :  1.13373e-02 Reference value :  1.13470e-02 Reference value :  1.13570e-02 Reference value :  1.13670e-02 Reference value :  1.13770e-02 Reference value :  1.13868e-02 Reference value :  1.13964e-02 Reference value :  1.14057e-02 Reference value :  1.14151e-02 Reference value :  1.14246e-02 Reference value :  1.14339e-02 Reference value :  1.14436e-02 Reference value :  1.14530e-02 Reference value :  1.14624e-02 Reference value :  1.14715e-02 Reference value :  1.14803e-02 Reference value :  1.14891e-02 Reference value :  1.14984e-02 Reference value :  1.15079e-02 Reference value :  1.15179e-02 Reference value :  1.15289e-02 Reference value :  1.15406e-02 Reference value :  1.15530e-02 Reference value :  1.15661e-02 Reference value :  1.15793e-02 Reference value :  1.15929e-02 Reference value :  1.16069e-02 Reference value :  1.16210e-02 Reference value :  1.16355e-02 Reference value :  1.16500e-02 Reference value :  1.16641e-02 Reference value :  1.16778e-02 Reference value :  1.16900e-02 Reference value :  1.17016e-02 Reference value :  1.17185e-02 Reference value :  1.17330e-02 Reference value :  1.17464e-02 Reference value :  1.17579e-02 Reference value :  1.17688e-02 Reference value :  1.17800e-02 Reference value :  1.17933e-02 Reference value :  1.18073e-02 Reference value :  1.18212e-02 Reference value :  1.18343e-02 Reference value :  1.18472e-02 Reference value :  1.18603e-02 Reference value :  1.18734e-02 Reference value :  1.18861e-02 Reference value :  1.18992e-02 Reference value :  1.19119e-02 Reference value :  1.19246e-02 Reference value :  1.19358e-02 Reference value :  1.19465e-02 Reference value :  1.19567e-02 Reference value :  1.19664e-02 Reference value :  1.19763e-02 Reference value :  1.19864e-02 Reference value :  1.19970e-02 Reference value :  1.20077e-02 Reference value :  1.20181e-02 Reference value :  1.20304e-02 Reference value :  1.20434e-02 Reference value :  1.20583e-02 Reference value :  1.20745e-02 Reference value :  1.20907e-02 Reference value :  1.21073e-02 Reference value :  1.21242e-02 Reference value :  1.21413e-02 Reference value :  1.21580e-02 Reference value :  1.21747e-02 Reference value :  1.21902e-02 Reference value :  1.22068e-02 Reference value :  1.22213e-02 Reference value :  1.22344e-02 Reference value :  1.22498e-02 Reference value :  1.22624e-02 Reference value :  1.22745e-02 Reference value :  1.22879e-02 Reference value :  1.23025e-02 Reference value :  1.23169e-02 Reference value :  1.23312e-02 Reference value :  1.23459e-02 Reference value :  1.23604e-02 Reference value :  1.23757e-02 Reference value :  1.23892e-02 Reference value :  1.24015e-02 Reference value :  1.24129e-02 Reference value :  1.24238e-02 Reference value :  1.24345e-02 Reference value :  1.24450e-02 Reference value :  1.24553e-02 Reference value :  1.24656e-02 Reference value :  1.24755e-02 Reference value :  1.24865e-02 Reference value :  1.24984e-02 Reference value :  1.25113e-02 Reference value :  1.25241e-02 Reference value :  1.25368e-02 Reference value :  1.25499e-02 Reference value :  1.25650e-02 Reference value :  1.25811e-02 Reference value :  1.25973e-02 Reference value :  1.26129e-02 Reference value :  1.26294e-02 Reference value :  1.26463e-02 Reference value :  1.26618e-02 Reference value :  1.26785e-02 Reference value :  1.26943e-02 Reference value :  1.27093e-02 Reference value :  1.27244e-02 Reference value :  1.27385e-02 Reference value :  1.27509e-02 Reference value :  1.27649e-02 Reference value :  1.27800e-02 Reference value :  1.27961e-02 Reference value :  1.28128e-02 Reference value :  1.28295e-02 Reference value :  1.28449e-02 Reference value :  1.28575e-02 Reference value :  1.28708e-02 Reference value :  1.28846e-02 Reference value :  1.28976e-02 Reference value :  1.29104e-02 Reference value :  1.29241e-02 Reference value :  1.29365e-02 Reference value :  1.29485e-02 Reference value :  1.29599e-02 Reference value :  1.29713e-02 Reference value :  1.29828e-02 Reference value :  1.29943e-02 Reference value :  1.30075e-02 Reference value :  1.30230e-02 Reference value :  1.30404e-02 Reference value :  1.30575e-02 Reference value :  1.30759e-02 Reference value :  1.30946e-02 Reference value :  1.31167e-02 Reference value :  1.31397e-02 Reference value :  1.31627e-02 Reference value :  1.31875e-02 Reference value :  1.32083e-02 Reference value :  1.32256e-02 Reference value :  1.32437e-02 Reference value :  1.32591e-02 Reference value :  1.32770e-02 Reference value :  1.32994e-02 Reference value :  1.33200e-02 Reference value :  1.33389e-02 Reference value :  1.33565e-02 Reference value :  1.33739e-02 Reference value :  1.33907e-02 Reference value :  1.34064e-02 Reference value :  1.34210e-02 Reference value :  1.34342e-02 Reference value :  1.34465e-02 Reference value :  1.34578e-02 Reference value :  1.34689e-02 Reference value :  1.34805e-02 Reference value :  1.34936e-02 Reference value :  1.35073e-02 Reference value :  1.35220e-02 Reference value :  1.35359e-02 Reference value :  1.35502e-02 Reference value :  1.35666e-02 Reference value :  1.35838e-02 Reference value :  1.36006e-02 Reference value :  1.36180e-02 Reference value :  1.36404e-02 Reference value :  1.36630e-02 Reference value :  1.36841e-02 Reference value :  1.37027e-02 Reference value :  1.37205e-02 Reference value :  1.37388e-02 Reference value :  1.37581e-02 Reference value :  1.37791e-02 Reference value :  1.38003e-02 Reference value :  1.38191e-02 Reference value :  1.38339e-02 Reference value :  1.38503e-02 Reference value :  1.38651e-02 Reference value :  1.38789e-02 Reference value :  1.38931e-02 Reference value :  1.39065e-02 Reference value :  1.39199e-02 Reference value :  1.39340e-02 Reference value :  1.39474e-02 Reference value :  1.39595e-02 Reference value :  1.39711e-02 Reference value :  1.39830e-02 Reference value :  1.39973e-02 Reference value :  1.40146e-02 Reference value :  1.40320e-02 Reference value :  1.40505e-02 Reference value :  1.40719e-02 Reference value :  1.40977e-02 Reference value :  1.41255e-02 Reference value :  1.41530e-02 Reference value :  1.41820e-02 Reference value :  1.42091e-02 Reference value :  1.42316e-02 Reference value :  1.42541e-02 Reference value :  1.42783e-02 Reference value :  1.43029e-02 Reference value :  1.43264e-02 Reference value :  1.43491e-02 Reference value :  1.43717e-02 Reference value :  1.43922e-02 Reference value :  1.44097e-02 Reference value :  1.44263e-02 Reference value :  1.44415e-02 Reference value :  1.44542e-02 Reference value :  1.44648e-02 Reference value :  1.44772e-02 Reference value :  1.44913e-02 Reference value :  1.45056e-02 Reference value :  1.45211e-02 Reference value :  1.45367e-02 Reference value :  1.45526e-02 Reference value :  1.45708e-02 Reference value :  1.45911e-02 Reference value :  1.46134e-02 Reference value :  1.46359e-02 Reference value :  1.46590e-02 Reference value :  1.46832e-02 Reference value :  1.47058e-02 Reference value :  1.47262e-02 Reference value :  1.47502e-02 Reference value :  1.47721e-02 Reference value :  1.47941e-02 Reference value :  1.48140e-02 Reference value :  1.48324e-02 Reference value :  1.48507e-02 Reference value :  1.48672e-02 Reference value :  1.48833e-02 Reference value :  1.48982e-02 Reference value :  1.49126e-02 Reference value :  1.49269e-02 Reference value :  1.49410e-02 Reference value :  1.49550e-02 Reference value :  1.49674e-02 Reference value :  1.49801e-02 Reference value :  1.49955e-02 Reference value :  1.50135e-02 Reference value :  1.50309e-02 Reference value :  1.50514e-02 Reference value :  1.50771e-02 Reference value :  1.51055e-02 Reference value :  1.51334e-02 Reference value :  1.51636e-02 Reference value :  1.51947e-02 Reference value :  1.52201e-02 Reference value :  1.52476e-02 Reference value :  1.52728e-02 Reference value :  1.52991e-02 Reference value :  1.53252e-02 Reference value :  1.53512e-02 Reference value :  1.53765e-02 Reference value :  1.54004e-02 Reference value :  1.54192e-02 Reference value :  1.54358e-02 Reference value :  1.54508e-02 Reference value :  1.54629e-02 Reference value :  1.54749e-02 Reference value :  1.54888e-02 Reference value :  1.55042e-02 Reference value :  1.55195e-02 Reference value :  1.55350e-02 Reference value :  1.55510e-02 Reference value :  1.55690e-02 Reference value :  1.55910e-02 Reference value :  1.56146e-02 Reference value :  1.56374e-02 Reference value :  1.56616e-02 Reference value :  1.56869e-02 Reference value :  1.57104e-02 Reference value :  1.57354e-02 Reference value :  1.57603e-02 Reference value :  1.57840e-02 Reference value :  1.58060e-02 Reference value :  1.58252e-02 Reference value :  1.58451e-02 Reference value :  1.58629e-02 Reference value :  1.58800e-02 Reference value :  1.58960e-02 Reference value :  1.59107e-02 Reference value :  1.59251e-02 Reference value :  1.59392e-02 Reference value :  1.59540e-02 Reference value :  1.59678e-02 Reference value :  1.59806e-02 Reference value :  1.59957e-02 Reference value :  1.60138e-02 Reference value :  1.60320e-02 Reference value :  1.60521e-02 Reference value :  1.60781e-02 Reference value :  1.61075e-02 Reference value :  1.61357e-02 Reference value :  1.61664e-02 Reference value :  1.61976e-02 Reference value :  1.62249e-02 Reference value :  1.62514e-02 Reference value :  1.62784e-02 Reference value :  1.63060e-02 Reference value :  1.63327e-02 Reference value :  1.63590e-02 Reference value :  1.63853e-02 Reference value :  1.64096e-02 Reference value :  1.64290e-02 Reference value :  1.64454e-02 Reference value :  1.64590e-02 Reference value :  1.64706e-02 Reference value :  1.64840e-02 Reference value :  1.64987e-02 Reference value :  1.65141e-02 Reference value :  1.65300e-02 Reference value :  1.65458e-02 Reference value :  1.65631e-02 Reference value :  1.65832e-02 Reference value :  1.66065e-02 Reference value :  1.66289e-02 Reference value :  1.66533e-02 Reference value :  1.66784e-02 Reference value :  1.67034e-02 Reference value :  1.67294e-02 Reference value :  1.67541e-02 Reference value :  1.67783e-02 Reference value :  1.68004e-02 Reference value :  1.68200e-02 Reference value :  1.68404e-02 Reference value :  1.68597e-02 Reference value :  1.68768e-02 Reference value :  1.68927e-02 Reference value :  1.69083e-02 Reference value :  1.69234e-02 Reference value :  1.69376e-02 Reference value :  1.69517e-02 Reference value :  1.69659e-02 Reference value :  1.69791e-02 Reference value :  1.69933e-02 Reference value :  1.70108e-02 Reference value :  1.70287e-02 Reference value :  1.70482e-02 Reference value :  1.70735e-02 Reference value :  1.71030e-02 Reference value :  1.71321e-02 Reference value :  1.71627e-02 Reference value :  1.71943e-02 Reference value :  1.72226e-02 Reference value :  1.72510e-02 Reference value :  1.72782e-02 Reference value :  1.73058e-02 Reference value :  1.73326e-02 Reference value :  1.73579e-02 Reference value :  1.73843e-02 Reference value :  1.74099e-02 Reference value :  1.74298e-02 Reference value :  1.74466e-02 Reference value :  1.74609e-02 Reference value :  1.74728e-02 Reference value :  1.74855e-02 Reference value :  1.75004e-02 Reference value :  1.75163e-02 Reference value :  1.75319e-02 Reference value :  1.75479e-02 Reference value :  1.75647e-02 Reference value :  1.75846e-02 Reference value :  1.76081e-02 Reference value :  1.76312e-02 Reference value :  1.76560e-02 Reference value :  1.76813e-02 Reference value :  1.77066e-02 Reference value :  1.77332e-02 Reference value :  1.77579e-02 Reference value :  1.77818e-02 Reference value :  1.78044e-02 Reference value :  1.78242e-02 Reference value :  1.78439e-02 Reference value :  1.78628e-02 Reference value :  1.78799e-02 Reference value :  1.78965e-02 Reference value :  1.79119e-02 Reference value :  1.79268e-02 Reference value :  1.79420e-02 Reference value :  1.79563e-02 Reference value :  1.79709e-02 Reference value :  1.79838e-02 Reference value :  1.79971e-02 Reference value :  1.80145e-02 Reference value :  1.80327e-02 Reference value :  1.80522e-02 Reference value :  1.80770e-02 Reference value :  1.81064e-02 Reference value :  1.81358e-02 Reference value :  1.81653e-02 Reference value :  1.81968e-02 Reference value :  1.82245e-02 Reference value :  1.82528e-02 Reference value :  1.82788e-02 Reference value :  1.83062e-02 Reference value :  1.83330e-02 Reference value :  1.83588e-02 Reference value :  1.83853e-02 Reference value :  1.84118e-02 Reference value :  1.84318e-02 Reference value :  1.84488e-02 Reference value :  1.84632e-02 Reference value :  1.84751e-02 Reference value :  1.84880e-02 Reference value :  1.85028e-02 Reference value :  1.85184e-02 Reference value :  1.85344e-02 Reference value :  1.85502e-02 Reference value :  1.85669e-02 Reference value :  1.85863e-02 Reference value :  1.86097e-02 Reference value :  1.86322e-02 Reference value :  1.86572e-02 Reference value :  1.86821e-02 Reference value :  1.87080e-02 Reference value :  1.87343e-02 Reference value :  1.87595e-02 Reference value :  1.87838e-02 Reference value :  1.88064e-02 Reference value :  1.88262e-02 Reference value :  1.88468e-02 Reference value :  1.88663e-02 Reference value :  1.88830e-02 Reference value :  1.88996e-02 Reference value :  1.89149e-02 Reference value :  1.89300e-02 Reference value :  1.89449e-02 Reference value :  1.89595e-02 Reference value :  1.89742e-02 Reference value :  1.89870e-02 Reference value :  1.90017e-02 Reference value :  1.90200e-02 Reference value :  1.90379e-02 Reference value :  1.90585e-02 Reference value :  1.90843e-02 Reference value :  1.91142e-02 Reference value :  1.91430e-02 Reference value :  1.91741e-02 Reference value :  1.92058e-02 Reference value :  1.92332e-02 Reference value :  1.92614e-02 Reference value :  1.92881e-02 Reference value :  1.93163e-02 Reference value :  1.93432e-02 Reference value :  1.93690e-02 Reference value :  1.93956e-02 Reference value :  1.94210e-02 Reference value :  1.94403e-02 Reference value :  1.94566e-02 Reference value :  1.94701e-02 Reference value :  1.94820e-02 Reference value :  1.94960e-02 Reference value :  1.95107e-02 Reference value :  1.95265e-02 Reference value :  1.95422e-02 Reference value :  1.95579e-02 Reference value :  1.95758e-02 Reference value :  1.95965e-02 Reference value :  1.96206e-02 Reference value :  1.96438e-02 Reference value :  1.96684e-02 Reference value :  1.96938e-02 Reference value :  1.97207e-02 Reference value :  1.97458e-02 Reference value :  1.97706e-02 Reference value :  1.97943e-02 Reference value :  1.98161e-02 Reference value :  1.98360e-02 Reference value :  1.98563e-02 Reference value :  1.98747e-02 Reference value :  1.98917e-02 Reference value :  1.99072e-02 Reference value :  1.99227e-02 Reference value :  1.99377e-02 Reference value :  1.99524e-02 Reference value :  1.99668e-02 Reference value :  1.99811e-02 Reference value :  1.99941e-02 Reference value :  2.00097e-02 Reference value :  2.00275e-02 Reference value :  2.00459e-02 Reference value :  2.00671e-02 Reference value :  2.00950e-02 Reference value :  2.01248e-02 Reference value :  2.01540e-02 Reference value :  2.01851e-02 Reference value :  2.02168e-02 Reference value :  2.02438e-02 Reference value :  2.02713e-02 Reference value :  2.02982e-02 Reference value :  2.03265e-02 Reference value :  2.03534e-02 Reference value :  2.03794e-02 Reference value :  2.04056e-02 Reference value :  2.04293e-02 Reference value :  2.04477e-02 Reference value :  2.04636e-02 Reference value :  2.04763e-02 Reference value :  2.04888e-02 Reference value :  2.05028e-02 Reference value :  2.05182e-02 Reference value :  2.05339e-02 Reference value :  2.05499e-02 Reference value :  2.05651e-02 Reference value :  2.05833e-02 Reference value :  2.06057e-02 Reference value :  2.06295e-02 Reference value :  2.06527e-02 Reference value :  2.06773e-02 Reference value :  2.07023e-02 Reference value :  2.07293e-02 Reference value :  2.07552e-02 Reference value :  2.07798e-02 Reference value :  2.08034e-02 Reference value :  2.08245e-02 Reference value :  2.08450e-02 Reference value :  2.08645e-02 Reference value :  2.08827e-02 Reference value :  2.08994e-02 Reference value :  2.09146e-02 Reference value :  2.09302e-02 Reference value :  2.09454e-02 Reference value :  2.09596e-02 Reference value :  2.09741e-02 Reference value :  2.09880e-02 Reference value :  2.10015e-02 Reference value :  2.10188e-02 Reference value :  2.10365e-02 Reference value :  2.10558e-02 Reference value :  2.10791e-02 Reference value :  2.11079e-02 Reference value :  2.11372e-02 Reference value :  2.11665e-02 Reference value :  2.11976e-02 Reference value :  2.12281e-02 Reference value :  2.12551e-02 Reference value :  2.12816e-02 Reference value :  2.13090e-02 Reference value :  2.13362e-02 Reference value :  2.13627e-02 Reference value :  2.13892e-02 Reference value :  2.14153e-02 Reference value :  2.14372e-02 Reference value :  2.14546e-02 Reference value :  2.14693e-02 Reference value :  2.14820e-02 Reference value :  2.14947e-02 Reference value :  2.15089e-02 Reference value :  2.15243e-02 Reference value :  2.15397e-02 Reference value :  2.15559e-02 Reference value :  2.15715e-02 Reference value :  2.15901e-02 Reference value :  2.16135e-02 Reference value :  2.16364e-02 Reference value :  2.16602e-02 Reference value :  2.16846e-02 Reference value :  2.17098e-02 Reference value :  2.17364e-02 Reference value :  2.17625e-02 Reference value :  2.17876e-02 Reference value :  2.18107e-02 Reference value :  2.18309e-02 Reference value :  2.18512e-02 Reference value :  2.18710e-02 Reference value :  2.18887e-02 Reference value :  2.19054e-02 Reference value :  2.19205e-02 Reference value :  2.19360e-02 Reference value :  2.19510e-02 Reference value :  2.19654e-02 Reference value :  2.19800e-02 Reference value :  2.19938e-02 Reference value :  2.20077e-02 Reference value :  2.20256e-02 Reference value :  2.20428e-02 Reference value :  2.20625e-02 Reference value :  2.20868e-02 Reference value :  2.21161e-02 Reference value :  2.21456e-02 Reference value :  2.21754e-02 Reference value :  2.22072e-02 Reference value :  2.22365e-02 Reference value :  2.22649e-02 Reference value :  2.22916e-02 Reference value :  2.23193e-02 Reference value :  2.23466e-02 Reference value :  2.23728e-02 Reference value :  2.23994e-02 Reference value :  2.24251e-02 Reference value :  2.24449e-02 Reference value :  2.24615e-02 Reference value :  2.24756e-02 Reference value :  2.24878e-02 Reference value :  2.25009e-02 Reference value :  2.25156e-02 Reference value :  2.25312e-02 Reference value :  2.25469e-02 Reference value :  2.25627e-02 Reference value :  2.25792e-02 Reference value :  2.25991e-02 Reference value :  2.26227e-02 Reference value :  2.26457e-02 Reference value :  2.26706e-02 Reference value :  2.26960e-02 Reference value :  2.27212e-02 Reference value :  2.27477e-02 Reference value :  2.27725e-02 Reference value :  2.27969e-02 Reference value :  2.28189e-02 Reference value :  2.28396e-02 Reference value :  2.28594e-02 Reference value :  2.28790e-02 Reference value :  2.28962e-02 Reference value :  2.29123e-02 Reference value :  2.29275e-02 Reference value :  2.29430e-02 Reference value :  2.29578e-02 Reference value :  2.29730e-02 Reference value :  2.29875e-02 Reference value :  2.30007e-02 Reference value :  2.30156e-02 Reference value :  2.30338e-02 Reference value :  2.30517e-02 Reference value :  2.30723e-02 Reference value :  2.30985e-02 Reference value :  2.31281e-02 Reference value :  2.31566e-02 Reference value :  2.31875e-02 Reference value :  2.32186e-02 Reference value :  2.32472e-02 Reference value :  2.32737e-02 Reference value :  2.33009e-02 Reference value :  2.33284e-02 Reference value :  2.33543e-02 Reference value :  2.33803e-02 Reference value :  2.34064e-02 Reference value :  2.34315e-02 Reference value :  2.34505e-02 Reference value :  2.34666e-02 Reference value :  2.34802e-02 Reference value :  2.34919e-02 Reference value :  2.35053e-02 Reference value :  2.35199e-02 Reference value :  2.35354e-02 Reference value :  2.35514e-02 Reference value :  2.35678e-02 Reference value :  2.35846e-02 Reference value :  2.36044e-02 Reference value :  2.36278e-02 Reference value :  2.36502e-02 Reference value :  2.36746e-02 Reference value :  2.36990e-02 Reference value :  2.37250e-02 Reference value :  2.37513e-02 Reference value :  2.37753e-02 Reference value :  2.37994e-02 Reference value :  2.38214e-02 Reference value :  2.38421e-02 Reference value :  2.38618e-02 Reference value :  2.38811e-02 Reference value :  2.38981e-02 Reference value :  2.39146e-02 Reference value :  2.39297e-02 Reference value :  2.39451e-02 Reference value :  2.39600e-02 Reference value :  2.39740e-02 Reference value :  2.39887e-02 Reference value :  2.40020e-02 Reference value :  2.40161e-02 Reference value :  2.40337e-02 Reference value :  2.40517e-02 Reference value :  2.40712e-02 Reference value :  2.40969e-02 Reference value :  2.41266e-02 Reference value :  2.41552e-02 Reference value :  2.41847e-02 Reference value :  2.42163e-02 Reference value :  2.42452e-02 Reference value :  2.42726e-02 Reference value :  2.42996e-02 Reference value :  2.43269e-02 Reference value :  2.43540e-02 Reference value :  2.43803e-02 Reference value :  2.44062e-02 Reference value :  2.44314e-02 Reference value :  2.44510e-02 Reference value :  2.44671e-02 Reference value :  2.44815e-02 Reference value :  2.44931e-02 Reference value :  2.45059e-02 Reference value :  2.45204e-02 Reference value :  2.45358e-02 Reference value :  2.45514e-02 Reference value :  2.45672e-02 Reference value :  2.45839e-02 Reference value :  2.46029e-02 Reference value :  2.46262e-02 Reference value :  2.46490e-02 Reference value :  2.46731e-02 Reference value :  2.46971e-02 Reference value :  2.47221e-02 Reference value :  2.47478e-02 Reference value :  2.47736e-02 Reference value :  2.47980e-02 Reference value :  2.48204e-02 Reference value :  2.48403e-02 Reference value :  2.48606e-02 Reference value :  2.48802e-02 Reference value :  2.48976e-02 Reference value :  2.49137e-02 Reference value :  2.49296e-02 Reference value :  2.49448e-02 Reference value :  2.49601e-02 Reference value :  2.49749e-02 Reference value :  2.49896e-02 Reference value :  2.50033e-02 Reference value :  2.50168e-02 Reference value :  2.50343e-02 Reference value :  2.50517e-02 Reference value :  2.50704e-02 Reference value :  2.50937e-02 Reference value :  2.51224e-02 Reference value :  2.51510e-02 Reference value :  2.51803e-02 Reference value :  2.52120e-02 Reference value :  2.52426e-02 Reference value :  2.52692e-02 Reference value :  2.52962e-02 Reference value :  2.53234e-02 Reference value :  2.53500e-02 Reference value :  2.53766e-02 Reference value :  2.54026e-02 Reference value :  2.54282e-02 Reference value :  2.54492e-02 Reference value :  2.54658e-02 Reference value :  2.54808e-02 Reference value :  2.54931e-02 Reference value :  2.55056e-02 Reference value :  2.55196e-02 Reference value :  2.55354e-02 Reference value :  2.55510e-02 Reference value :  2.55667e-02 Reference value :  2.55825e-02 Reference value :  2.56013e-02 Reference value :  2.56241e-02 Reference value :  2.56475e-02 Reference value :  2.56714e-02 Reference value :  2.56958e-02 Reference value :  2.57210e-02 Reference value :  2.57488e-02 Reference value :  2.57739e-02 Reference value :  2.57987e-02 Reference value :  2.58216e-02 Reference value :  2.58418e-02 Reference value :  2.58627e-02 Reference value :  2.58827e-02 Reference value :  2.59009e-02 Reference value :  2.59174e-02 Reference value :  2.59333e-02 Reference value :  2.59485e-02 Reference value :  2.59637e-02 Reference value :  2.59780e-02 Reference value :  2.59932e-02 Reference value :  2.60066e-02 Reference value :  2.60206e-02 Reference value :  2.60377e-02 Reference value :  2.60558e-02 Reference value :  2.60753e-02 Reference value :  2.60996e-02 Reference value :  2.61291e-02 Reference value :  2.61585e-02 Reference value :  2.61875e-02 Reference value :  2.62189e-02 Reference value :  2.62478e-02 Reference value :  2.62748e-02 Reference value :  2.63021e-02 Reference value :  2.63297e-02 Reference value :  2.63568e-02 Reference value :  2.63831e-02 Reference value :  2.64095e-02 Reference value :  2.64353e-02 Reference value :  2.64555e-02 Reference value :  2.64722e-02 Reference value :  2.64870e-02 Reference value :  2.64989e-02 Reference value :  2.65119e-02 Reference value :  2.65265e-02 Reference value :  2.65419e-02 Reference value :  2.65568e-02 Reference value :  2.65730e-02 Reference value :  2.65891e-02 Reference value :  2.66080e-02 Reference value :  2.66311e-02 Reference value :  2.66538e-02 Reference value :  2.66783e-02 Reference value :  2.67028e-02 Reference value :  2.67291e-02 Reference value :  2.67556e-02 Reference value :  2.67809e-02 Reference value :  2.68056e-02 Reference value :  2.68279e-02 Reference value :  2.68481e-02 Reference value :  2.68679e-02 Reference value :  2.68877e-02 Reference value :  2.69050e-02 Reference value :  2.69213e-02 Reference value :  2.69370e-02 Reference value :  2.69525e-02 Reference value :  2.69671e-02 Reference value :  2.69818e-02 Reference value :  2.69965e-02 Reference value :  2.70102e-02 Reference value :  2.70239e-02 Reference value :  2.70416e-02 Reference value :  2.70593e-02 Reference value :  2.70786e-02 Reference value :  2.71035e-02 Reference value :  2.71325e-02 Reference value :  2.71613e-02 Reference value :  2.71902e-02 Reference value :  2.72215e-02 Reference value :  2.72513e-02 Reference value :  2.72786e-02 Reference value :  2.73045e-02 Reference value :  2.73315e-02 Reference value :  2.73583e-02 Reference value :  2.73840e-02 Reference value :  2.74101e-02 Reference value :  2.74355e-02 Reference value :  2.74557e-02 Reference value :  2.74726e-02 Reference value :  2.74872e-02 Reference value :  2.74996e-02 Reference value :  2.75120e-02 Reference value :  2.75259e-02 Reference value :  2.75412e-02 Reference value :  2.75574e-02 Reference value :  2.75729e-02 Reference value :  2.75889e-02 Reference value :  2.76070e-02 Reference value :  2.76299e-02 Reference value :  2.76527e-02 Reference value :  2.76758e-02 Reference value :  2.76997e-02 Reference value :  2.77253e-02 Reference value :  2.77520e-02 Reference value :  2.77779e-02 Reference value :  2.78026e-02 Reference value :  2.78253e-02 Reference value :  2.78459e-02 Reference value :  2.78660e-02 Reference value :  2.78860e-02 Reference value :  2.79043e-02 Reference value :  2.79209e-02 Reference value :  2.79361e-02 Reference value :  2.79509e-02 Reference value :  2.79662e-02 Reference value :  2.79811e-02 Reference value :  2.79957e-02 Reference value :  2.80100e-02 Reference value :  2.80234e-02 Reference value :  2.80402e-02 Reference value :  2.80576e-02 Reference value :  2.80764e-02 Reference value :  2.80998e-02 Reference value :  2.81285e-02 Reference value :  2.81579e-02 Reference value :  2.81867e-02 Reference value :  2.82181e-02 Reference value :  2.82487e-02 Reference value :  2.82751e-02 Reference value :  2.83020e-02 Reference value :  2.83295e-02 Reference value :  2.83570e-02 Reference value :  2.83836e-02 Reference value :  2.84090e-02 Reference value :  2.84351e-02 Reference value :  2.84564e-02 Reference value :  2.84737e-02 Reference value :  2.84885e-02 Reference value :  2.85013e-02 Reference value :  2.85137e-02 Reference value :  2.85277e-02 Reference value :  2.85432e-02 Reference value :  2.85591e-02 Reference value :  2.85751e-02 Reference value :  2.85911e-02 Reference value :  2.86101e-02 Reference value :  2.86326e-02 Reference value :  2.86555e-02 Reference value :  2.86790e-02 Reference value :  2.87033e-02 Reference value :  2.87279e-02 Reference value :  2.87542e-02 Reference value :  2.87814e-02 Reference value :  2.88061e-02 Reference value :  2.88292e-02 Reference value :  2.88500e-02 Reference value :  2.88704e-02 Reference value :  2.88902e-02 Reference value :  2.89084e-02 Reference value :  2.89257e-02 Reference value :  2.89409e-02 Reference value :  2.89566e-02 Reference value :  2.89718e-02 Reference value :  2.89865e-02 Reference value :  2.90011e-02 Reference value :  2.90151e-02 Reference value :  2.90286e-02 Reference value :  2.90457e-02 Reference value :  2.90634e-02 Reference value :  2.90829e-02 Reference value :  2.91070e-02 Reference value :  2.91364e-02 Reference value :  2.91650e-02 Reference value :  2.91942e-02 Reference value :  2.92261e-02 Reference value :  2.92557e-02 Reference value :  2.92814e-02 Reference value :  2.93090e-02 Reference value :  2.93364e-02 Reference value :  2.93634e-02 Reference value :  2.93903e-02 Reference value :  2.94165e-02 Reference value :  2.94420e-02 Reference value :  2.94627e-02 Reference value :  2.94792e-02 Reference value :  2.94940e-02 Reference value :  2.95063e-02 Reference value :  2.95187e-02 Reference value :  2.95328e-02 Reference value :  2.95480e-02 Reference value :  2.95637e-02 Reference value :  2.95800e-02 Reference value :  2.95954e-02 Reference value :  2.96144e-02 Reference value :  2.96376e-02 Reference value :  2.96608e-02 Reference value :  2.96851e-02 Reference value :  2.97099e-02 Reference value :  2.97349e-02 Reference value :  2.97631e-02 Reference value :  2.97879e-02 Reference value :  2.98125e-02 Reference value :  2.98354e-02 Reference value :  2.98558e-02 Reference value :  2.98761e-02 Reference value :  2.98959e-02 Reference value :  2.99133e-02 Reference value :  2.99297e-02 Reference value :  2.99456e-02 Reference value :  2.99610e-02 Reference value :  2.99763e-02 Reference value :  2.99909e-02 Reference value :  3.00062e-02 Reference value :  3.00196e-02 Reference value :  3.00340e-02 Reference value :  3.00524e-02 Reference value :  3.00699e-02 Reference value :  3.00903e-02 Reference value :  3.01156e-02 Reference value :  3.01457e-02 Reference value :  3.01750e-02 Reference value :  3.02051e-02 Reference value :  3.02373e-02 Reference value :  3.02649e-02 Reference value :  3.02932e-02 Reference value :  3.03198e-02 Reference value :  3.03470e-02 Reference value :  3.03740e-02 Reference value :  3.03998e-02 Reference value :  3.04261e-02 Reference value :  3.04507e-02 Reference value :  3.04699e-02 Reference value :  3.04864e-02 Reference value :  3.05006e-02 Reference value :  3.05124e-02 Reference value :  3.05254e-02 Reference value :  3.05396e-02 Reference value :  3.05553e-02 Reference value :  3.05713e-02 Reference value :  3.05875e-02 Reference value :  3.06041e-02 Reference value :  3.06240e-02 Reference value :  3.06475e-02 Reference value :  3.06703e-02 Reference value :  3.06945e-02 Reference value :  3.07191e-02 Reference value :  3.07456e-02 Reference value :  3.07724e-02 Reference value :  3.07972e-02 Reference value :  3.08214e-02 Reference value :  3.08437e-02 Reference value :  3.08639e-02 Reference value :  3.08842e-02 Reference value :  3.09038e-02 Reference value :  3.09208e-02 Reference value :  3.09371e-02 Reference value :  3.09527e-02 Reference value :  3.09686e-02 Reference value :  3.09828e-02 Reference value :  3.09981e-02 Reference value :  3.10129e-02 Reference value :  3.10260e-02 Reference value :  3.10411e-02 Reference value :  3.10590e-02 Reference value :  3.10763e-02 Reference value :  3.10973e-02 Reference value :  3.11237e-02 Reference value :  3.11533e-02 Reference value :  3.11814e-02 Reference value :  3.12117e-02 Reference value :  3.12433e-02 Reference value :  3.12714e-02 Reference value :  3.12983e-02 Reference value :  3.13249e-02 Reference value :  3.13523e-02 Reference value :  3.13786e-02 Reference value :  3.14039e-02 Reference value :  3.14296e-02 Reference value :  3.14539e-02 Reference value :  3.14729e-02 Reference value :  3.14891e-02 Reference value :  3.15036e-02 Reference value :  3.15156e-02 Reference value :  3.15289e-02 Reference value :  3.15434e-02 Reference value :  3.15588e-02 Reference value :  3.15747e-02 Reference value :  3.15906e-02 Reference value :  3.16076e-02 Reference value :  3.16278e-02 Reference value :  3.16512e-02 Reference value :  3.16743e-02 Reference value :  3.16985e-02 Reference value :  3.17236e-02 Reference value :  3.17503e-02 Reference value :  3.17774e-02 Reference value :  3.18018e-02 Reference value :  3.18260e-02 Reference value :  3.18474e-02 Reference value :  3.18682e-02 Reference value :  3.18881e-02 Reference value :  3.19078e-02 Reference value :  3.19250e-02 Reference value :  3.19420e-02 Reference value :  3.19572e-02 Reference value :  3.19723e-02 Reference value :  3.19865e-02 Reference value :  3.20017e-02 Reference value :  3.20167e-02 Reference value :  3.20301e-02 Reference value :  3.20456e-02 Reference value :  3.20638e-02 Reference value :  3.20818e-02 Reference value :  3.21031e-02 Reference value :  3.21307e-02 Reference value :  3.21607e-02 Reference value :  3.21883e-02 Reference value :  3.22201e-02 Reference value :  3.22518e-02 Reference value :  3.22801e-02 Reference value :  3.23062e-02 Reference value :  3.23337e-02 Reference value :  3.23614e-02 Reference value :  3.23877e-02 Reference value :  3.24124e-02 Reference value :  3.24384e-02 Reference value :  3.24615e-02 Reference value :  3.24801e-02 Reference value :  3.24958e-02 Reference value :  3.25094e-02 Reference value :  3.25212e-02 Reference value :  3.25350e-02 Reference value :  3.25498e-02 Reference value :  3.25662e-02 Reference value :  3.25820e-02 Reference value :  3.25979e-02 Reference value :  3.26161e-02 Reference value :  3.26378e-02 Reference value :  3.26609e-02 Reference value :  3.26838e-02 Reference value :  3.27081e-02 Reference value :  3.27335e-02 Reference value :  3.27606e-02 Reference value :  3.27866e-02 Reference value :  3.28114e-02 Reference value :  3.28346e-02 Reference value :  3.28557e-02 Reference value :  3.28767e-02 Reference value :  3.28966e-02 Reference value :  3.29153e-02 Reference value :  3.29326e-02 Reference value :  3.29487e-02 Reference value :  3.29644e-02 Reference value :  3.29800e-02 Reference value :  3.29943e-02 Reference value :  3.30097e-02 Reference value :  3.30243e-02 Reference value :  3.30381e-02 Reference value :  3.30547e-02 Reference value :  3.30722e-02 Reference value :  3.30917e-02 Reference value :  3.31147e-02 Reference value :  3.31441e-02 Reference value :  3.31743e-02 Reference value :  3.32031e-02 Reference value :  3.32351e-02 Reference value :  3.32653e-02 Reference value :  3.32939e-02 Reference value :  3.33196e-02 Reference value :  3.33469e-02 Reference value :  3.33749e-02 Reference value :  3.34015e-02 Reference value :  3.34272e-02 Reference value :  3.34527e-02 Reference value :  3.34737e-02 Reference value :  3.34907e-02 Reference value :  3.35056e-02 Reference value :  3.35181e-02 Reference value :  3.35307e-02 Reference value :  3.35450e-02 Reference value :  3.35605e-02 Reference value :  3.35763e-02 Reference value :  3.35923e-02 Reference value :  3.36084e-02 Reference value :  3.36272e-02 Reference value :  3.36502e-02 Reference value :  3.36731e-02 Reference value :  3.36970e-02 Reference value :  3.37211e-02 Reference value :  3.37466e-02 Reference value :  3.37744e-02 Reference value :  3.37995e-02 Reference value :  3.38241e-02 Reference value :  3.38470e-02 Reference value :  3.38673e-02 Reference value :  3.38881e-02 Reference value :  3.39081e-02 Reference value :  3.39259e-02 Reference value :  3.39426e-02 Reference value :  3.39578e-02 Reference value :  3.39739e-02 Reference value :  3.39892e-02 Reference value :  3.40037e-02 Reference value :  3.40188e-02 Reference value :  3.40318e-02 Reference value :  3.40456e-02 Reference value :  3.40631e-02 Reference value :  3.40809e-02 Reference value :  3.41007e-02 Reference value :  3.41263e-02 Reference value :  3.41559e-02 Reference value :  3.41856e-02 Reference value :  3.42152e-02 Reference value :  3.42471e-02 Reference value :  3.42757e-02 Reference value :  3.43036e-02 Reference value :  3.43297e-02 Reference value :  3.43562e-02 Reference value :  3.43830e-02 Reference value :  3.44095e-02 Reference value :  3.44358e-02 Reference value :  3.44606e-02 Reference value :  3.44802e-02 Reference value :  3.44969e-02 Reference value :  3.45115e-02 Reference value :  3.45230e-02 Reference value :  3.45358e-02 Reference value :  3.45502e-02 Reference value :  3.45655e-02 Reference value :  3.45816e-02 Reference value :  3.45973e-02 Reference value :  3.46136e-02 Reference value :  3.46333e-02 Reference value :  3.46568e-02 Reference value :  3.46791e-02 Reference value :  3.47038e-02 Reference value :  3.47283e-02 Reference value :  3.47539e-02 Reference value :  3.47800e-02 Reference value :  3.48049e-02 Reference value :  3.48294e-02 Reference value :  3.48514e-02 Reference value :  3.48715e-02 Reference value :  3.48914e-02 Reference value :  3.49111e-02 Reference value :  3.49286e-02 Reference value :  3.49448e-02 Reference value :  3.49598e-02 Reference value :  3.49749e-02 Reference value :  3.49898e-02 Reference value :  3.50043e-02 Reference value :  3.50193e-02 Reference value :  3.50331e-02 Reference value :  3.50465e-02 Reference value :  3.50636e-02 Reference value :  3.50810e-02 Reference value :  3.51003e-02 Reference value :  3.51244e-02 Reference value :  3.51529e-02 Reference value :  3.51823e-02 Reference value :  3.52116e-02 Reference value :  3.52430e-02 Reference value :  3.52730e-02 Reference value :  3.53004e-02 Reference value :  3.53265e-02 Reference value :  3.53532e-02 Reference value :  3.53794e-02 Reference value :  3.54063e-02 Reference value :  3.54321e-02 Reference value :  3.54577e-02 Reference value :  3.54783e-02 Reference value :  3.54953e-02 Reference value :  3.55104e-02 Reference value :  3.55228e-02 Reference value :  3.55353e-02 Reference value :  3.55494e-02 Reference value :  3.55648e-02 Reference value :  3.55805e-02 Reference value :  3.55964e-02 Reference value :  3.56121e-02 Reference value :  3.56304e-02 Reference value :  3.56528e-02 Reference value :  3.56757e-02 Reference value :  3.56990e-02 Reference value :  3.57231e-02 Reference value :  3.57478e-02 Reference value :  3.57749e-02 Reference value :  3.57996e-02 Reference value :  3.58243e-02 Reference value :  3.58469e-02 Reference value :  3.58672e-02 Reference value :  3.58875e-02 Reference value :  3.59071e-02 Reference value :  3.59254e-02 Reference value :  3.59417e-02 Reference value :  3.59576e-02 Reference value :  3.59727e-02 Reference value :  3.59879e-02 Reference value :  3.60021e-02 Reference value :  3.60172e-02 Reference value :  3.60314e-02 Reference value :  3.60440e-02 Reference value :  3.60596e-02 Reference value :  3.60769e-02 Reference value :  3.60954e-02 Reference value :  3.61168e-02 Reference value :  3.61435e-02 Reference value :  3.61726e-02 Reference value :  3.62001e-02 Reference value :  3.62308e-02 Reference value :  3.62616e-02 Reference value :  3.62895e-02 Reference value :  3.63156e-02 Reference value :  3.63423e-02 Reference value :  3.63688e-02 Reference value :  3.63955e-02 Reference value :  3.64208e-02 Reference value :  3.64464e-02 Reference value :  3.64703e-02 Reference value :  3.64888e-02 Reference value :  3.65045e-02 Reference value :  3.65188e-02 Reference value :  3.65306e-02 Reference value :  3.65436e-02 Reference value :  3.65577e-02 Reference value :  3.65725e-02 Reference value :  3.65882e-02 Reference value :  3.66038e-02 Reference value :  3.66195e-02 Reference value :  3.66388e-02 Reference value :  3.66616e-02 Reference value :  3.66838e-02 Reference value :  3.67078e-02 Reference value :  3.67318e-02 Reference value :  3.67564e-02 Reference value :  3.67840e-02 Reference value :  3.68087e-02 Reference value :  3.68326e-02 Reference value :  3.68547e-02 Reference value :  3.68745e-02 Reference value :  3.68940e-02 Reference value :  3.69134e-02 Reference value :  3.69315e-02 Reference value :  3.69481e-02 Reference value :  3.69638e-02 Reference value :  3.69790e-02 Reference value :  3.69941e-02 Reference value :  3.70084e-02 Reference value :  3.70235e-02 Reference value :  3.70372e-02 Reference value :  3.70504e-02 Reference value :  3.70674e-02 Reference value :  3.70847e-02 Reference value :  3.71034e-02 Reference value :  3.71259e-02 Reference value :  3.71540e-02 Reference value :  3.71831e-02 Reference value :  3.72109e-02 Reference value :  3.72425e-02 Reference value :  3.72740e-02 Reference value :  3.72995e-02 Reference value :  3.73266e-02 Reference value :  3.73539e-02 Reference value :  3.73811e-02 Reference value :  3.74074e-02 Reference value :  3.74323e-02 Reference value :  3.74583e-02 Reference value :  3.74808e-02 Reference value :  3.74981e-02 Reference value :  3.75139e-02 Reference value :  3.75270e-02 Reference value :  3.75391e-02 Reference value :  3.75529e-02 Reference value :  3.75680e-02 Reference value :  3.75838e-02 Reference value :  3.75996e-02 Reference value :  3.76154e-02 Reference value :  3.76332e-02 Reference value :  3.76547e-02 Reference value :  3.76782e-02 Reference value :  3.77018e-02 Reference value :  3.77263e-02 Reference value :  3.77517e-02 Reference value :  3.77771e-02 Reference value :  3.78030e-02 Reference value :  3.78273e-02 Reference value :  3.78510e-02 Reference value :  3.78720e-02 Reference value :  3.78923e-02 Reference value :  3.79129e-02 Reference value :  3.79315e-02 Reference value :  3.79486e-02 Reference value :  3.79643e-02 Reference value :  3.79797e-02 Reference value :  3.79950e-02 Reference value :  3.80092e-02 Reference value :  3.80243e-02 Reference value :  3.80386e-02 Reference value :  3.80519e-02 Reference value :  3.80680e-02 Reference value :  3.80855e-02 Reference value :  3.81042e-02 Reference value :  3.81267e-02 Reference value :  3.81549e-02 Reference value :  3.81845e-02 Reference value :  3.82133e-02 Reference value :  3.82442e-02 Reference value :  3.82752e-02 Reference value :  3.83020e-02 Reference value :  3.83275e-02 Reference value :  3.83543e-02 Reference value :  3.83815e-02 Reference value :  3.84079e-02 Reference value :  3.84333e-02 Reference value :  3.84590e-02 Reference value :  3.84814e-02 Reference value :  3.84997e-02 Reference value :  3.85150e-02 Reference value :  3.85285e-02 Reference value :  3.85397e-02 Reference value :  3.85534e-02 Reference value :  3.85681e-02 Reference value :  3.85835e-02 Reference value :  3.85996e-02 Reference value :  3.86150e-02 Reference value :  3.86325e-02 Reference value :  3.86536e-02 Reference value :  3.86770e-02 Reference value :  3.86997e-02 Reference value :  3.87238e-02 Reference value :  3.87482e-02 Reference value :  3.87730e-02 Reference value :  3.87978e-02 Reference value :  3.88220e-02 Reference value :  3.88461e-02 Reference value :  3.88680e-02 Reference value :  3.88885e-02 Reference value :  3.89084e-02 Reference value :  3.89277e-02 Reference value :  3.89449e-02 Reference value :  3.89612e-02 Reference value :  3.89765e-02 Reference value :  3.89917e-02 Reference value :  3.90067e-02 Reference value :  3.90213e-02 Reference value :  3.90363e-02 Reference value :  3.90495e-02 Reference value :  3.90641e-02 Reference value :  3.90818e-02 Reference value :  3.90997e-02 Reference value :  3.91201e-02 Reference value :  3.91467e-02 Reference value :  3.91761e-02 Reference value :  3.92050e-02 Reference value :  3.92342e-02 Reference value :  3.92638e-02 Reference value :  3.92912e-02 Reference value :  3.93178e-02 Reference value :  3.93443e-02 Reference value :  3.93714e-02 Reference value :  3.93974e-02 Reference value :  3.94228e-02 Reference value :  3.94488e-02 Reference value :  3.94734e-02 Reference value :  3.94933e-02 Reference value :  3.95098e-02 Reference value :  3.95248e-02 Reference value :  3.95369e-02 Reference value :  3.95498e-02 Reference value :  3.95638e-02 Reference value :  3.95791e-02 Reference value :  3.95949e-02 Reference value :  3.96101e-02 Reference value :  3.96263e-02 Reference value :  3.96451e-02 Reference value :  3.96685e-02 Reference value :  3.96914e-02 Reference value :  3.97148e-02 Reference value :  3.97373e-02 Reference value :  3.97620e-02 Reference value :  3.97892e-02 Reference value :  3.98144e-02 Reference value :  3.98389e-02 Reference value :  3.98619e-02 Reference value :  3.98819e-02 Reference value :  3.99021e-02 Reference value :  3.99218e-02 Reference value :  3.99401e-02 Reference value :  3.99566e-02 Reference value :  3.99719e-02 Reference value :  3.99877e-02 Reference value :  4.00027e-02 Reference value :  4.00169e-02 Reference value :  4.00320e-02 Reference value :  4.00461e-02 Reference value :  4.00591e-02 Reference value :  4.00758e-02 Reference value :  4.00934e-02 Reference value :  4.01121e-02 Reference value :  4.01347e-02 Reference value :  4.01637e-02 Reference value :  4.01932e-02 Reference value :  4.02220e-02 Reference value :  4.02539e-02 Reference value :  4.02847e-02 Reference value :  4.03111e-02 Reference value :  4.03370e-02 Reference value :  4.03638e-02 Reference value :  4.03908e-02 Reference value :  4.04163e-02 Reference value :  4.04418e-02 Reference value :  4.04682e-02 Reference value :  4.04897e-02 Reference value :  4.05077e-02 Reference value :  4.05230e-02 Reference value :  4.05359e-02 Reference value :  4.05476e-02 Reference value :  4.05612e-02 Reference value :  4.05759e-02 Reference value :  4.05913e-02 Reference value :  4.06068e-02 Reference value :  4.06225e-02 Reference value :  4.06399e-02 Reference value :  4.06606e-02 Reference value :  4.06838e-02 Reference value :  4.07063e-02 Reference value :  4.07302e-02 Reference value :  4.07549e-02 Reference value :  4.07800e-02 Reference value :  4.08075e-02 Reference value :  4.08322e-02 Reference value :  4.08559e-02 Reference value :  4.08772e-02 Reference value :  4.08980e-02 Reference value :  4.09177e-02 Reference value :  4.09369e-02 Reference value :  4.09536e-02 Reference value :  4.09696e-02 Reference value :  4.09854e-02 Reference value :  4.10009e-02 Reference value :  4.10154e-02 Reference value :  4.10303e-02 Reference value :  4.10450e-02 Reference value :  4.10580e-02 Reference value :  4.10732e-02 Reference value :  4.10909e-02 Reference value :  4.11089e-02 Reference value :  4.11299e-02 Reference value :  4.11575e-02 Reference value :  4.11869e-02 Reference value :  4.12150e-02 Reference value :  4.12458e-02 Reference value :  4.12770e-02 Reference value :  4.13043e-02 Reference value :  4.13312e-02 Reference value :  4.13577e-02 Reference value :  4.13848e-02 Reference value :  4.14112e-02 Reference value :  4.14366e-02 Reference value :  4.14629e-02 Reference value :  4.14862e-02 Reference value :  4.15053e-02 Reference value :  4.15211e-02 Reference value :  4.15352e-02 Reference value :  4.15468e-02 Reference value :  4.15597e-02 Reference value :  4.15740e-02 Reference value :  4.15894e-02 Reference value :  4.16049e-02 Reference value :  4.16206e-02 Reference value :  4.16373e-02 Reference value :  4.16565e-02 Reference value :  4.16798e-02 Reference value :  4.17021e-02 Reference value :  4.17262e-02 Reference value :  4.17505e-02 Reference value :  4.17763e-02 Reference value :  4.18022e-02 Reference value :  4.18268e-02 Reference value :  4.18510e-02 Reference value :  4.18735e-02 Reference value :  4.18938e-02 Reference value :  4.19142e-02 Reference value :  4.19339e-02 Reference value :  4.19514e-02 Reference value :  4.19677e-02 Reference value :  4.19832e-02 Reference value :  4.19987e-02 Reference value :  4.20139e-02 Reference value :  4.20284e-02 Reference value :  4.20437e-02 Reference value :  4.20574e-02 Reference value :  4.20719e-02 Reference value :  4.20899e-02 Reference value :  4.21075e-02 Reference value :  4.21283e-02 Reference value :  4.21540e-02 Reference value :  4.21837e-02 Reference value :  4.22126e-02 Reference value :  4.22424e-02 Re
[...]
ence value :  8.26464e-02 Reference value :  8.26609e-02 Reference value :  8.26725e-02 Reference value :  8.26861e-02 Reference value :  8.27013e-02 Reference value :  8.27167e-02 Reference value :  8.27323e-02 Reference value :  8.27484e-02 Reference value :  8.27659e-02 Reference value :  8.27863e-02 Reference value :  8.28095e-02 Reference value :  8.28320e-02 Reference value :  8.28561e-02 Reference value :  8.28801e-02 Reference value :  8.29073e-02 Reference value :  8.29323e-02 Reference value :  8.29568e-02 Reference value :  8.29807e-02 Reference value :  8.30021e-02 Reference value :  8.30231e-02 Reference value :  8.30429e-02 Reference value :  8.30622e-02 Reference value :  8.30794e-02 Reference value :  8.30960e-02 Reference value :  8.31120e-02 Reference value :  8.31276e-02 Reference value :  8.31425e-02 Reference value :  8.31579e-02 Reference value :  8.31727e-02 Reference value :  8.31864e-02 Reference value :  8.32019e-02 Reference value :  8.32197e-02 Reference value :  8.32377e-02 Reference value :  8.32599e-02 Reference value :  8.32871e-02 Reference value :  8.33173e-02 Reference value :  8.33464e-02 Reference value :  8.33775e-02 Reference value :  8.34086e-02 Reference value :  8.34368e-02 Reference value :  8.34626e-02 Reference value :  8.34901e-02 Reference value :  8.35172e-02 Reference value :  8.35432e-02 Reference value :  8.35686e-02 Reference value :  8.35950e-02 Reference value :  8.36182e-02 Reference value :  8.36361e-02 Reference value :  8.36527e-02 Reference value :  8.36661e-02 Reference value :  8.36779e-02 Reference value :  8.36917e-02 Reference value :  8.37068e-02 Reference value :  8.37223e-02 Reference value :  8.37384e-02 Reference value :  8.37538e-02 Reference value :  8.37716e-02 Reference value :  8.37926e-02 Reference value :  8.38160e-02 Reference value :  8.38387e-02 Reference value :  8.38629e-02 Reference value :  8.38879e-02 Reference value :  8.39149e-02 Reference value :  8.39405e-02 Reference value :  8.39651e-02 Reference value :  8.39888e-02 Reference value :  8.40094e-02 Reference value :  8.40302e-02 Reference value :  8.40505e-02 Reference value :  8.40692e-02 Reference value :  8.40862e-02 Reference value :  8.41026e-02 Reference value :  8.41184e-02 Reference value :  8.41341e-02 Reference value :  8.41483e-02 Reference value :  8.41638e-02 Reference value :  8.41786e-02 Reference value :  8.41922e-02 Reference value :  8.42087e-02 Reference value :  8.42260e-02 Reference value :  8.42447e-02 Reference value :  8.42679e-02 Reference value :  8.42966e-02 Reference value :  8.43261e-02 Reference value :  8.43546e-02 Reference value :  8.43860e-02 Reference value :  8.44175e-02 Reference value :  8.44444e-02 Reference value :  8.44708e-02 Reference value :  8.44983e-02 Reference value :  8.45256e-02 Reference value :  8.45511e-02 Reference value :  8.45765e-02 Reference value :  8.46028e-02 Reference value :  8.46250e-02 Reference value :  8.46428e-02 Reference value :  8.46587e-02 Reference value :  8.46714e-02 Reference value :  8.46838e-02 Reference value :  8.46979e-02 Reference value :  8.47129e-02 Reference value :  8.47280e-02 Reference value :  8.47440e-02 Reference value :  8.47592e-02 Reference value :  8.47768e-02 Reference value :  8.47982e-02 Reference value :  8.48215e-02 Reference value :  8.48440e-02 Reference value :  8.48678e-02 Reference value :  8.48926e-02 Reference value :  8.49209e-02 Reference value :  8.49458e-02 Reference value :  8.49700e-02 Reference value :  8.49937e-02 Reference value :  8.50140e-02 Reference value :  8.50346e-02 Reference value :  8.50545e-02 Reference value :  8.50732e-02 Reference value :  8.50900e-02 Reference value :  8.51056e-02 Reference value :  8.51216e-02 Reference value :  8.51368e-02 Reference value :  8.51512e-02 Reference value :  8.51664e-02 Reference value :  8.51814e-02 Reference value :  8.51950e-02 Reference value :  8.52117e-02 Reference value :  8.52289e-02 Reference value :  8.52482e-02 Reference value :  8.52707e-02 Reference value :  8.52991e-02 Reference value :  8.53285e-02 Reference value :  8.53566e-02 Reference value :  8.53877e-02 Reference value :  8.54190e-02 Reference value :  8.54460e-02 Reference value :  8.54721e-02 Reference value :  8.54992e-02 Reference value :  8.55271e-02 Reference value :  8.55529e-02 Reference value :  8.55784e-02 Reference value :  8.56046e-02 Reference value :  8.56272e-02 Reference value :  8.56448e-02 Reference value :  8.56610e-02 Reference value :  8.56741e-02 Reference value :  8.56863e-02 Reference value :  8.57004e-02 Reference value :  8.57157e-02 Reference value :  8.57314e-02 Reference value :  8.57471e-02 Reference value :  8.57627e-02 Reference value :  8.57810e-02 Reference value :  8.58025e-02 Reference value :  8.58257e-02 Reference value :  8.58482e-02 Reference value :  8.58717e-02 Reference value :  8.58969e-02 Reference value :  8.59244e-02 Reference value :  8.59491e-02 Reference value :  8.59732e-02 Reference value :  8.59963e-02 Reference value :  8.60165e-02 Reference value :  8.60367e-02 Reference value :  8.60564e-02 Reference value :  8.60748e-02 Reference value :  8.60918e-02 Reference value :  8.61077e-02 Reference value :  8.61231e-02 Reference value :  8.61385e-02 Reference value :  8.61527e-02 Reference value :  8.61678e-02 Reference value :  8.61821e-02 Reference value :  8.61954e-02 Reference value :  8.62109e-02 Reference value :  8.62277e-02 Reference value :  8.62456e-02 Reference value :  8.62658e-02 Reference value :  8.62931e-02 Reference value :  8.63226e-02 Reference value :  8.63508e-02 Reference value :  8.63809e-02 Reference value :  8.64122e-02 Reference value :  8.64399e-02 Reference value :  8.64665e-02 Reference value :  8.64931e-02 Reference value :  8.65200e-02 Reference value :  8.65463e-02 Reference value :  8.65719e-02 Reference value :  8.65978e-02 Reference value :  8.66219e-02 Reference value :  8.66407e-02 Reference value :  8.66573e-02 Reference value :  8.66716e-02 Reference value :  8.66833e-02 Reference value :  8.66962e-02 Reference value :  8.67111e-02 Reference value :  8.67265e-02 Reference value :  8.67420e-02 Reference value :  8.67578e-02 Reference value :  8.67741e-02 Reference value :  8.67932e-02 Reference value :  8.68158e-02 Reference value :  8.68382e-02 Reference value :  8.68621e-02 Reference value :  8.68863e-02 Reference value :  8.69111e-02 Reference value :  8.69390e-02 Reference value :  8.69627e-02 Reference value :  8.69867e-02 Reference value :  8.70085e-02 Reference value :  8.70280e-02 Reference value :  8.70476e-02 Reference value :  8.70671e-02 Reference value :  8.70850e-02 Reference value :  8.71014e-02 Reference value :  8.71167e-02 Reference value :  8.71325e-02 Reference value :  8.71473e-02 Reference value :  8.71620e-02 Reference value :  8.71766e-02 Reference value :  8.71906e-02 Reference value :  8.72044e-02 Reference value :  8.72213e-02 Reference value :  8.72382e-02 Reference value :  8.72571e-02 Reference value :  8.72799e-02 Reference value :  8.73090e-02 Reference value :  8.73380e-02 Reference value :  8.73663e-02 Reference value :  8.73974e-02 Reference value :  8.74283e-02 Reference value :  8.74554e-02 Reference value :  8.74816e-02 Reference value :  8.75084e-02 Reference value :  8.75356e-02 Reference value :  8.75620e-02 Reference value :  8.75881e-02 Reference value :  8.76141e-02 Reference value :  8.76358e-02 Reference value :  8.76530e-02 Reference value :  8.76688e-02 Reference value :  8.76818e-02 Reference value :  8.76941e-02 Reference value :  8.77083e-02 Reference value :  8.77239e-02 Reference value :  8.77398e-02 Reference value :  8.77557e-02 Reference value :  8.77716e-02 Reference value :  8.77901e-02 Reference value :  8.78125e-02 Reference value :  8.78351e-02 Reference value :  8.78581e-02 Reference value :  8.78817e-02 Reference value :  8.79072e-02 Reference value :  8.79344e-02 Reference value :  8.79599e-02 Reference value :  8.79846e-02 Reference value :  8.80078e-02 Reference value :  8.80284e-02 Reference value :  8.80488e-02 Reference value :  8.80686e-02 Reference value :  8.80868e-02 Reference value :  8.81040e-02 Reference value :  8.81195e-02 Reference value :  8.81357e-02 Reference value :  8.81511e-02 Reference value :  8.81663e-02 Reference value :  8.81814e-02 Reference value :  8.81956e-02 Reference value :  8.82099e-02 Reference value :  8.82273e-02 Reference value :  8.82443e-02 Reference value :  8.82641e-02 Reference value :  8.82883e-02 Reference value :  8.83174e-02 Reference value :  8.83465e-02 Reference value :  8.83759e-02 Reference value :  8.84073e-02 Reference value :  8.84369e-02 Reference value :  8.84638e-02 Reference value :  8.84912e-02 Reference value :  8.85186e-02 Reference value :  8.85448e-02 Reference value :  8.85711e-02 Reference value :  8.85966e-02 Reference value :  8.86225e-02 Reference value :  8.86427e-02 Reference value :  8.86595e-02 Reference value :  8.86746e-02 Reference value :  8.86867e-02 Reference value :  8.86991e-02 Reference value :  8.87137e-02 Reference value :  8.87293e-02 Reference value :  8.87449e-02 Reference value :  8.87610e-02 Reference value :  8.87764e-02 Reference value :  8.87949e-02 Reference value :  8.88182e-02 Reference value :  8.88407e-02 Reference value :  8.88645e-02 Reference value :  8.88885e-02 Reference value :  8.89141e-02 Reference value :  8.89403e-02 Reference value :  8.89648e-02 Reference value :  8.89895e-02 Reference value :  8.90123e-02 Reference value :  8.90321e-02 Reference value :  8.90524e-02 Reference value :  8.90724e-02 Reference value :  8.90909e-02 Reference value :  8.91074e-02 Reference value :  8.91230e-02 Reference value :  8.91385e-02 Reference value :  8.91537e-02 Reference value :  8.91685e-02 Reference value :  8.91840e-02 Reference value :  8.91981e-02 Reference value :  8.92121e-02 Reference value :  8.92293e-02 Reference value :  8.92459e-02 Reference value :  8.92656e-02 Reference value :  8.92904e-02 Reference value :  8.93201e-02 Reference value :  8.93497e-02 Reference value :  8.93784e-02 Reference value :  8.94102e-02 Reference value :  8.94401e-02 Reference value :  8.94687e-02 Reference value :  8.94952e-02 Reference value :  8.95226e-02 Reference value :  8.95493e-02 Reference value :  8.95756e-02 Reference value :  8.96017e-02 Reference value :  8.96272e-02 Reference value :  8.96466e-02 Reference value :  8.96634e-02 Reference value :  8.96786e-02 Reference value :  8.96909e-02 Reference value :  8.97039e-02 Reference value :  8.97182e-02 Reference value :  8.97340e-02 Reference value :  8.97497e-02 Reference value :  8.97652e-02 Reference value :  8.97815e-02 Reference value :  8.98008e-02 Reference value :  8.98241e-02 Reference value :  8.98471e-02 Reference value :  8.98717e-02 Reference value :  8.98962e-02 Reference value :  8.99219e-02 Reference value :  8.99493e-02 Reference value :  8.99740e-02 Reference value :  8.99985e-02 Reference value :  9.00207e-02 Reference value :  9.00416e-02 Reference value :  9.00621e-02 Reference value :  9.00815e-02 Reference value :  9.00986e-02 Reference value :  9.01152e-02 Reference value :  9.01304e-02 Reference value :  9.01462e-02 Reference value :  9.01611e-02 Reference value :  9.01764e-02 Reference value :  9.01915e-02 Reference value :  9.02051e-02 Reference value :  9.02205e-02 Reference value :  9.02379e-02 Reference value :  9.02558e-02 Reference value :  9.02766e-02 Reference value :  9.03035e-02 Reference value :  9.03334e-02 Reference value :  9.03622e-02 Reference value :  9.03931e-02 Reference value :  9.04253e-02 Reference value :  9.04533e-02 Reference value :  9.04813e-02 Reference value :  9.05082e-02 Reference value :  9.05355e-02 Reference value :  9.05624e-02 Reference value :  9.05876e-02 Reference value :  9.06142e-02 Reference value :  9.06382e-02 Reference value :  9.06566e-02 Reference value :  9.06731e-02 Reference value :  9.06868e-02 Reference value :  9.06987e-02 Reference value :  9.07122e-02 Reference value :  9.07273e-02 Reference value :  9.07430e-02 Reference value :  9.07586e-02 Reference value :  9.07741e-02 Reference value :  9.07918e-02 Reference value :  9.08126e-02 Reference value :  9.08363e-02 Reference value :  9.08591e-02 Reference value :  9.08832e-02 Reference value :  9.09081e-02 Reference value :  9.09349e-02 Reference value :  9.09608e-02 Reference value :  9.09855e-02 Reference value :  9.10093e-02 Reference value :  9.10299e-02 Reference value :  9.10507e-02 Reference value :  9.10703e-02 Reference value :  9.10896e-02 Reference value :  9.11067e-02 Reference value :  9.11223e-02 Reference value :  9.11383e-02 Reference value :  9.11538e-02 Reference value :  9.11688e-02 Reference value :  9.11837e-02 Reference value :  9.11985e-02 Reference value :  9.12120e-02 Reference value :  9.12282e-02 Reference value :  9.12452e-02 Reference value :  9.12636e-02 Reference value :  9.12852e-02 Reference value :  9.13132e-02 Reference value :  9.13431e-02 Reference value :  9.13719e-02 Reference value :  9.14034e-02 Reference value :  9.14348e-02 Reference value :  9.14627e-02 Reference value :  9.14881e-02 Reference value :  9.15152e-02 Reference value :  9.15427e-02 Reference value :  9.15693e-02 Reference value :  9.15948e-02 Reference value :  9.16213e-02 Reference value :  9.16441e-02 Reference value :  9.16622e-02 Reference value :  9.16781e-02 Reference value :  9.16915e-02 Reference value :  9.17036e-02 Reference value :  9.17178e-02 Reference value :  9.17331e-02 Reference value :  9.17489e-02 Reference value :  9.17649e-02 Reference value :  9.17802e-02 Reference value :  9.17981e-02 Reference value :  9.18200e-02 Reference value :  9.18433e-02 Reference value :  9.18664e-02 Reference value :  9.18903e-02 Reference value :  9.19153e-02 Reference value :  9.19422e-02 Reference value :  9.19672e-02 Reference value :  9.19918e-02 Reference value :  9.20153e-02 Reference value :  9.20357e-02 Reference value :  9.20564e-02 Reference value :  9.20761e-02 Reference value :  9.20950e-02 Reference value :  9.21117e-02 Reference value :  9.21274e-02 Reference value :  9.21432e-02 Reference value :  9.21590e-02 Reference value :  9.21731e-02 Reference value :  9.21884e-02 Reference value :  9.22029e-02 Reference value :  9.22163e-02 Reference value :  9.22334e-02 Reference value :  9.22504e-02 Reference value :  9.22694e-02 Reference value :  9.22922e-02 Reference value :  9.23214e-02 Reference value :  9.23512e-02 Reference value :  9.23806e-02 Reference value :  9.24114e-02 Reference value :  9.24428e-02 Reference value :  9.24701e-02 Reference value :  9.24963e-02 Reference value :  9.25235e-02 Reference value :  9.25509e-02 Reference value :  9.25772e-02 Reference value :  9.26029e-02 Reference value :  9.26291e-02 Reference value :  9.26508e-02 Reference value :  9.26681e-02 Reference value :  9.26840e-02 Reference value :  9.26965e-02 Reference value :  9.27092e-02 Reference value :  9.27234e-02 Reference value :  9.27385e-02 Reference value :  9.27542e-02 Reference value :  9.27700e-02 Reference value :  9.27858e-02 Reference value :  9.28046e-02 Reference value :  9.28272e-02 Reference value :  9.28502e-02 Reference value :  9.28736e-02 Reference value :  9.28975e-02 Reference value :  9.29224e-02 Reference value :  9.29490e-02 Reference value :  9.29740e-02 Reference value :  9.29984e-02 Reference value :  9.30215e-02 Reference value :  9.30418e-02 Reference value :  9.30620e-02 Reference value :  9.30821e-02 Reference value :  9.31005e-02 Reference value :  9.31173e-02 Reference value :  9.31332e-02 Reference value :  9.31489e-02 Reference value :  9.31645e-02 Reference value :  9.31792e-02 Reference value :  9.31945e-02 Reference value :  9.32089e-02 Reference value :  9.32228e-02 Reference value :  9.32398e-02 Reference value :  9.32569e-02 Reference value :  9.32764e-02 Reference value :  9.33002e-02 Reference value :  9.33287e-02 Reference value :  9.33587e-02 Reference value :  9.33877e-02 Reference value :  9.34195e-02 Reference value :  9.34499e-02 Reference value :  9.34778e-02 Reference value :  9.35038e-02 Reference value :  9.35309e-02 Reference value :  9.35580e-02 Reference value :  9.35846e-02 Reference value :  9.36098e-02 Reference value :  9.36354e-02 Reference value :  9.36563e-02 Reference value :  9.36736e-02 Reference value :  9.36893e-02 Reference value :  9.37016e-02 Reference value :  9.37139e-02 Reference value :  9.37285e-02 Reference value :  9.37441e-02 Reference value :  9.37595e-02 Reference value :  9.37754e-02 Reference value :  9.37910e-02 Reference value :  9.38097e-02 Reference value :  9.38329e-02 Reference value :  9.38560e-02 Reference value :  9.38799e-02 Reference value :  9.39037e-02 Reference value :  9.39294e-02 Reference value :  9.39570e-02 Reference value :  9.39819e-02 Reference value :  9.40062e-02 Reference value :  9.40291e-02 Reference value :  9.40496e-02 Reference value :  9.40696e-02 Reference value :  9.40894e-02 Reference value :  9.41075e-02 Reference value :  9.41237e-02 Reference value :  9.41397e-02 Reference value :  9.41551e-02 Reference value :  9.41703e-02 Reference value :  9.41855e-02 Reference value :  9.42009e-02 Reference value :  9.42146e-02 Reference value :  9.42293e-02 Reference value :  9.42473e-02 Reference value :  9.42646e-02 Reference value :  9.42834e-02 Reference value :  9.43071e-02 Reference value :  9.43365e-02 Reference value :  9.43647e-02 Reference value :  9.43903e-02 Reference value :  9.44180e-02 Reference value :  9.44497e-02 Reference value :  9.44767e-02 Reference value :  9.45033e-02 Reference value :  9.45301e-02 Reference value :  9.45573e-02 Reference value :  9.45801e-02 Reference value :  9.46022e-02 Reference value :  9.46246e-02 Reference value :  9.46458e-02 Reference value :  9.46621e-02 Reference value :  9.46778e-02 Reference value :  9.46926e-02 Reference value :  9.47048e-02 Reference value :  9.47175e-02 Reference value :  9.47296e-02 Reference value :  9.47420e-02 Reference value :  9.47542e-02 Reference value :  9.47671e-02 Reference value :  9.47800e-02 Reference value :  9.47927e-02 Reference value :  9.48075e-02 Reference value :  9.48251e-02 Reference value :  9.48438e-02 Reference value :  9.48620e-02 Reference value :  9.48818e-02 Reference value :  9.49006e-02 Reference value :  9.49201e-02 Reference value :  9.49422e-02 Reference value :  9.49614e-02 Reference value :  9.49827e-02 Reference value :  9.50025e-02 Reference value :  9.50215e-02 Reference value :  9.50382e-02 Reference value :  9.50545e-02Command terminated by signal 9
	Command being timed: "ngspice -b regulator_iv6_500ms.cir"
	User time (seconds): 1242.85
	System time (seconds): 10.02
	Percent of CPU this job got: 99%
	Elapsed (wall clock) time (h:mm:ss or m:ss): 20:53.22
	Average shared text size (kbytes): 0
	Average unshared data size (kbytes): 0
	Average stack size (kbytes): 0
	Average total size (kbytes): 0
	Maximum resident set size (kbytes): 17393724
	Average resident set size (kbytes): 0
	Major (requiring I/O) page faults: 146244
	Minor (reclaiming a frame) page faults: 4350401
	Voluntary context switches: 210
	Involuntary context switches: 15885
	Swaps: 0
	File system inputs: 608
	File system outputs: 314
	Socket messages sent: 0
	Socket messages received: 0
	Signals delivered: 0
	Page size (bytes): 4096
	Exit status: 0
